* File: bitslice.pex.netlist.pex
* Created: Tue Apr 23 09:39:37 2019
* Program "Calibre xRC"
* Version "v2012.2_36.25"
* Nominal Temperature: 27C
* Circuit Temperature: 27C
* 
.subckt PM_BITSLICE_X1_X8_X0_7 6 12 16 18
r0 54 56 0.0475
r1 41 62 0.0338756
r2 41 42 1.705
r3 40 62 0.0338756
r4 39 59 0.0517569
r5 39 40 1.0625
r6 37 56 0.0046983
r7 37 38 0.77
r8 32 38 0.0458784
r9 32 34 0.209231
r10 31 54 0.0046983
r11 30 52 0.0517569
r12 30 31 0.11
r13 29 52 0.0517569
r14 28 29 0.9075
r15 27 48 0.0517569
r16 26 62 0.00880368
r17 26 27 0.35
r18 25 44 0.0234599
r19 24 42 0.0446983
r20 24 25 0.6525
r21 22 28 0.0446983
r22 22 23 0.625
r23 21 23 0.0446983
r24 20 44 0.0517569
r25 20 21 1.5675
r26 19 59 15.61
r27 19 52 11.07
r28 19 48 11.07
r29 19 44 11.07
r30 19 34 3.8825
r31 18 19 0.921778
r32 16 19 1.89833
r33 14 19 8.27089
r34 14 15 109.615
r35 10 15 5.58729
r36 10 12 201.923
r37 8 19 8.27089
r38 8 9 86.1538
r39 4 9 5.58729
r40 4 6 174.615
.ends

.subckt PM_BITSLICE_X1_X8_X1_7 6 12 16 18
r0 54 56 0.0475
r1 41 62 0.0338756
r2 41 42 1.705
r3 40 62 0.0338756
r4 39 59 0.0517569
r5 39 40 1.0625
r6 37 56 0.0046983
r7 37 38 0.77
r8 32 38 0.0458784
r9 32 34 0.209231
r10 31 54 0.0046983
r11 30 52 0.0517569
r12 30 31 0.11
r13 29 52 0.0517569
r14 28 29 0.9075
r15 27 48 0.0517569
r16 26 62 0.00880368
r17 26 27 0.35
r18 25 44 0.0234599
r19 24 42 0.0446983
r20 24 25 0.6525
r21 22 28 0.0446983
r22 22 23 0.625
r23 21 23 0.0446983
r24 20 44 0.0517569
r25 20 21 1.5675
r26 19 59 15.61
r27 19 52 11.07
r28 19 48 11.07
r29 19 44 11.07
r30 19 34 3.8825
r31 18 19 0.921778
r32 16 19 1.89833
r33 14 19 8.27089
r34 14 15 109.615
r35 10 15 5.58729
r36 10 12 201.923
r37 8 19 8.27089
r38 8 9 86.1538
r39 4 9 5.58729
r40 4 6 174.615
.ends

.subckt PM_BITSLICE_X1_X8_X2_7 6 12 16 18
r0 54 56 0.0475
r1 41 62 0.0338756
r2 41 42 1.705
r3 40 62 0.0338756
r4 39 59 0.0517569
r5 39 40 1.0625
r6 37 56 0.0046983
r7 37 38 0.77
r8 32 38 0.0458784
r9 32 34 0.209231
r10 31 54 0.0046983
r11 30 52 0.0517569
r12 30 31 0.11
r13 29 52 0.0517569
r14 28 29 0.9075
r15 27 48 0.0517569
r16 26 62 0.00880368
r17 26 27 0.35
r18 25 44 0.0234599
r19 24 42 0.0446983
r20 24 25 0.6525
r21 22 28 0.0446983
r22 22 23 0.625
r23 21 23 0.0446983
r24 20 44 0.0517569
r25 20 21 1.5675
r26 19 59 15.61
r27 19 52 11.07
r28 19 48 11.07
r29 19 44 11.07
r30 19 34 3.8825
r31 18 19 0.921778
r32 16 19 1.89833
r33 14 19 8.27089
r34 14 15 109.615
r35 10 15 5.58729
r36 10 12 201.923
r37 8 19 8.27089
r38 8 9 86.1538
r39 4 9 5.58729
r40 4 6 174.615
.ends

.subckt PM_BITSLICE_X1_X8_X3_7 6 12 16 18
r0 54 56 0.0475
r1 41 62 0.0338756
r2 41 42 1.705
r3 40 62 0.0338756
r4 39 59 0.0517569
r5 39 40 1.0625
r6 37 56 0.0046983
r7 37 38 0.77
r8 32 38 0.0458784
r9 32 34 0.209231
r10 31 54 0.0046983
r11 30 52 0.0517569
r12 30 31 0.11
r13 29 52 0.0517569
r14 28 29 0.9075
r15 27 48 0.0517569
r16 26 62 0.00880368
r17 26 27 0.35
r18 25 44 0.0234599
r19 24 42 0.0446983
r20 24 25 0.6525
r21 22 28 0.0446983
r22 22 23 0.625
r23 21 23 0.0446983
r24 20 44 0.0517569
r25 20 21 1.5675
r26 19 59 15.61
r27 19 52 11.07
r28 19 48 11.07
r29 19 44 11.07
r30 19 34 3.8825
r31 18 19 0.921778
r32 16 19 1.89833
r33 14 19 8.27089
r34 14 15 109.615
r35 10 15 5.58729
r36 10 12 201.923
r37 8 19 8.27089
r38 8 9 86.1538
r39 4 9 5.58729
r40 4 6 174.615
.ends

.subckt PM_BITSLICE_X1_X8_X4_7 6 12 16 18
r0 54 56 0.0475
r1 41 62 0.0338756
r2 41 42 1.705
r3 40 62 0.0338756
r4 39 59 0.0517569
r5 39 40 1.0625
r6 37 56 0.0046983
r7 37 38 0.77
r8 32 38 0.0458784
r9 32 34 0.209231
r10 31 54 0.0046983
r11 30 52 0.0517569
r12 30 31 0.11
r13 29 52 0.0517569
r14 28 29 0.9075
r15 27 48 0.0517569
r16 26 62 0.00880368
r17 26 27 0.35
r18 25 44 0.0234599
r19 24 42 0.0446983
r20 24 25 0.6525
r21 22 28 0.0446983
r22 22 23 0.625
r23 21 23 0.0446983
r24 20 44 0.0517569
r25 20 21 1.5675
r26 19 59 15.61
r27 19 52 11.07
r28 19 48 11.07
r29 19 44 11.07
r30 19 34 3.8825
r31 18 19 0.921778
r32 16 19 1.89833
r33 14 19 8.27089
r34 14 15 109.615
r35 10 15 5.58729
r36 10 12 201.923
r37 8 19 8.27089
r38 8 9 86.1538
r39 4 9 5.58729
r40 4 6 174.615
.ends

.subckt PM_BITSLICE_X1_X8_X5_7 6 12 16 18
r0 54 56 0.0475
r1 41 62 0.0338756
r2 41 42 1.705
r3 40 62 0.0338756
r4 39 59 0.0517569
r5 39 40 1.0625
r6 37 56 0.0046983
r7 37 38 0.77
r8 32 38 0.0458784
r9 32 34 0.209231
r10 31 54 0.0046983
r11 30 52 0.0517569
r12 30 31 0.11
r13 29 52 0.0517569
r14 28 29 0.9075
r15 27 48 0.0517569
r16 26 62 0.00880368
r17 26 27 0.35
r18 25 44 0.0234599
r19 24 42 0.0446983
r20 24 25 0.6525
r21 22 28 0.0446983
r22 22 23 0.625
r23 21 23 0.0446983
r24 20 44 0.0517569
r25 20 21 1.5675
r26 19 59 15.61
r27 19 52 11.07
r28 19 48 11.07
r29 19 44 11.07
r30 19 34 3.8825
r31 18 19 0.921778
r32 16 19 1.89833
r33 14 19 8.27089
r34 14 15 109.615
r35 10 15 5.58729
r36 10 12 201.923
r37 8 19 8.27089
r38 8 9 86.1538
r39 4 9 5.58729
r40 4 6 174.615
.ends

.subckt PM_BITSLICE_X1_X8_X6_7 6 12 16 18
r0 54 56 0.0475
r1 41 62 0.0338756
r2 41 42 1.705
r3 40 62 0.0338756
r4 39 59 0.0517569
r5 39 40 1.0625
r6 37 56 0.0046983
r7 37 38 0.77
r8 32 38 0.0458784
r9 32 34 0.209231
r10 31 54 0.0046983
r11 30 52 0.0517569
r12 30 31 0.11
r13 29 52 0.0517569
r14 28 29 0.9075
r15 27 48 0.0517569
r16 26 62 0.00880368
r17 26 27 0.35
r18 25 44 0.0234599
r19 24 42 0.0446983
r20 24 25 0.6525
r21 22 28 0.0446983
r22 22 23 0.625
r23 21 23 0.0446983
r24 20 44 0.0517569
r25 20 21 1.5675
r26 19 59 15.61
r27 19 52 11.07
r28 19 48 11.07
r29 19 44 11.07
r30 19 34 3.8825
r31 18 19 0.921778
r32 16 19 1.89833
r33 14 19 8.27089
r34 14 15 109.615
r35 10 15 5.58729
r36 10 12 201.923
r37 8 19 8.27089
r38 8 9 86.1538
r39 4 9 5.58729
r40 4 6 174.615
.ends

.subckt PM_BITSLICE_X1_X9_X0_7 6 12 16 18
r0 54 56 0.0475
r1 41 62 0.0338756
r2 41 42 1.705
r3 40 62 0.0338756
r4 39 59 0.0517569
r5 39 40 1.0625
r6 37 56 0.0046983
r7 37 38 0.77
r8 32 38 0.0458784
r9 32 34 0.209231
r10 31 54 0.0046983
r11 30 52 0.0517569
r12 30 31 0.11
r13 29 52 0.0517569
r14 28 29 0.9075
r15 27 48 0.0517569
r16 26 62 0.00880368
r17 26 27 0.35
r18 25 44 0.0234599
r19 24 42 0.0446983
r20 24 25 0.6525
r21 22 28 0.0446983
r22 22 23 0.625
r23 21 23 0.0446983
r24 20 44 0.0517569
r25 20 21 1.5675
r26 19 59 15.61
r27 19 52 11.07
r28 19 48 11.07
r29 19 44 11.07
r30 19 34 3.8825
r31 18 19 0.921778
r32 16 19 1.89833
r33 14 19 8.27089
r34 14 15 109.615
r35 10 15 5.58729
r36 10 12 201.923
r37 8 19 8.27089
r38 8 9 86.1538
r39 4 9 5.58729
r40 4 6 174.615
.ends

.subckt PM_BITSLICE_X1_X9_X1_7 6 12 16 18
r0 54 56 0.0475
r1 41 62 0.0338756
r2 41 42 1.705
r3 40 62 0.0338756
r4 39 59 0.0517569
r5 39 40 1.0625
r6 37 56 0.0046983
r7 37 38 0.77
r8 32 38 0.0458784
r9 32 34 0.209231
r10 31 54 0.0046983
r11 30 52 0.0517569
r12 30 31 0.11
r13 29 52 0.0517569
r14 28 29 0.9075
r15 27 48 0.0517569
r16 26 62 0.00880368
r17 26 27 0.35
r18 25 44 0.0234599
r19 24 42 0.0446983
r20 24 25 0.6525
r21 22 28 0.0446983
r22 22 23 0.625
r23 21 23 0.0446983
r24 20 44 0.0517569
r25 20 21 1.5675
r26 19 59 15.61
r27 19 52 11.07
r28 19 48 11.07
r29 19 44 11.07
r30 19 34 3.8825
r31 18 19 0.921778
r32 16 19 1.89833
r33 14 19 8.27089
r34 14 15 109.615
r35 10 15 5.58729
r36 10 12 201.923
r37 8 19 8.27089
r38 8 9 86.1538
r39 4 9 5.58729
r40 4 6 174.615
.ends

.subckt PM_BITSLICE_X1_X9_X2_7 6 12 16 18
r0 54 56 0.0475
r1 41 62 0.0338756
r2 41 42 1.705
r3 40 62 0.0338756
r4 39 59 0.0517569
r5 39 40 1.0625
r6 37 56 0.0046983
r7 37 38 0.77
r8 32 38 0.0458784
r9 32 34 0.209231
r10 31 54 0.0046983
r11 30 52 0.0517569
r12 30 31 0.11
r13 29 52 0.0517569
r14 28 29 0.9075
r15 27 48 0.0517569
r16 26 62 0.00880368
r17 26 27 0.35
r18 25 44 0.0234599
r19 24 42 0.0446983
r20 24 25 0.6525
r21 22 28 0.0446983
r22 22 23 0.625
r23 21 23 0.0446983
r24 20 44 0.0517569
r25 20 21 1.5675
r26 19 59 15.61
r27 19 52 11.07
r28 19 48 11.07
r29 19 44 11.07
r30 19 34 3.8825
r31 18 19 0.921778
r32 16 19 1.89833
r33 14 19 8.27089
r34 14 15 109.615
r35 10 15 5.58729
r36 10 12 201.923
r37 8 19 8.27089
r38 8 9 86.1538
r39 4 9 5.58729
r40 4 6 174.615
.ends

.subckt PM_BITSLICE_X1_X9_X3_7 6 12 16 18
r0 54 56 0.0475
r1 41 62 0.0338756
r2 41 42 1.705
r3 40 62 0.0338756
r4 39 59 0.0517569
r5 39 40 1.0625
r6 37 56 0.0046983
r7 37 38 0.77
r8 32 38 0.0458784
r9 32 34 0.209231
r10 31 54 0.0046983
r11 30 52 0.0517569
r12 30 31 0.11
r13 29 52 0.0517569
r14 28 29 0.9075
r15 27 48 0.0517569
r16 26 62 0.00880368
r17 26 27 0.35
r18 25 44 0.0234599
r19 24 42 0.0446983
r20 24 25 0.6525
r21 22 28 0.0446983
r22 22 23 0.625
r23 21 23 0.0446983
r24 20 44 0.0517569
r25 20 21 1.5675
r26 19 59 15.61
r27 19 52 11.07
r28 19 48 11.07
r29 19 44 11.07
r30 19 34 3.8825
r31 18 19 0.921778
r32 16 19 1.89833
r33 14 19 8.27089
r34 14 15 109.615
r35 10 15 5.58729
r36 10 12 201.923
r37 8 19 8.27089
r38 8 9 86.1538
r39 4 9 5.58729
r40 4 6 174.615
.ends

.subckt PM_BITSLICE_X1_X9_X4_7 6 12 16 18
r0 54 56 0.0475
r1 41 62 0.0338756
r2 41 42 1.705
r3 40 62 0.0338756
r4 39 59 0.0517569
r5 39 40 1.0625
r6 37 56 0.0046983
r7 37 38 0.77
r8 32 38 0.0458784
r9 32 34 0.209231
r10 31 54 0.0046983
r11 30 52 0.0517569
r12 30 31 0.11
r13 29 52 0.0517569
r14 28 29 0.9075
r15 27 48 0.0517569
r16 26 62 0.00880368
r17 26 27 0.35
r18 25 44 0.0234599
r19 24 42 0.0446983
r20 24 25 0.6525
r21 22 28 0.0446983
r22 22 23 0.625
r23 21 23 0.0446983
r24 20 44 0.0517569
r25 20 21 1.5675
r26 19 59 15.61
r27 19 52 11.07
r28 19 48 11.07
r29 19 44 11.07
r30 19 34 3.8825
r31 18 19 0.921778
r32 16 19 1.89833
r33 14 19 8.27089
r34 14 15 109.615
r35 10 15 5.58729
r36 10 12 201.923
r37 8 19 8.27089
r38 8 9 86.1538
r39 4 9 5.58729
r40 4 6 174.615
.ends

.subckt PM_BITSLICE_X1_X9_X5_7 6 12 16 18
r0 54 56 0.0475
r1 41 62 0.0338756
r2 41 42 1.705
r3 40 62 0.0338756
r4 39 59 0.0517569
r5 39 40 1.0625
r6 37 56 0.0046983
r7 37 38 0.77
r8 32 38 0.0458784
r9 32 34 0.209231
r10 31 54 0.0046983
r11 30 52 0.0517569
r12 30 31 0.11
r13 29 52 0.0517569
r14 28 29 0.9075
r15 27 48 0.0517569
r16 26 62 0.00880368
r17 26 27 0.35
r18 25 44 0.0234599
r19 24 42 0.0446983
r20 24 25 0.6525
r21 22 28 0.0446983
r22 22 23 0.625
r23 21 23 0.0446983
r24 20 44 0.0517569
r25 20 21 1.5675
r26 19 59 15.61
r27 19 52 11.07
r28 19 48 11.07
r29 19 44 11.07
r30 19 34 3.8825
r31 18 19 0.921778
r32 16 19 1.89833
r33 14 19 8.27089
r34 14 15 109.615
r35 10 15 5.58729
r36 10 12 201.923
r37 8 19 8.27089
r38 8 9 86.1538
r39 4 9 5.58729
r40 4 6 174.615
.ends

.subckt PM_BITSLICE_X1_X9_X6_7 6 12 16 18
r0 54 56 0.0475
r1 41 62 0.0338756
r2 41 42 1.705
r3 40 62 0.0338756
r4 39 59 0.0517569
r5 39 40 1.0625
r6 37 56 0.0046983
r7 37 38 0.77
r8 32 38 0.0458784
r9 32 34 0.209231
r10 31 54 0.0046983
r11 30 52 0.0517569
r12 30 31 0.11
r13 29 52 0.0517569
r14 28 29 0.9075
r15 27 48 0.0517569
r16 26 62 0.00880368
r17 26 27 0.35
r18 25 44 0.0234599
r19 24 42 0.0446983
r20 24 25 0.6525
r21 22 28 0.0446983
r22 22 23 0.625
r23 21 23 0.0446983
r24 20 44 0.0517569
r25 20 21 1.5675
r26 19 59 15.61
r27 19 52 11.07
r28 19 48 11.07
r29 19 44 11.07
r30 19 34 3.8825
r31 18 19 0.921778
r32 16 19 1.89833
r33 14 19 8.27089
r34 14 15 109.615
r35 10 15 5.58729
r36 10 12 201.923
r37 8 19 8.27089
r38 8 9 86.1538
r39 4 9 5.58729
r40 4 6 174.615
.ends

.subckt PM_BITSLICE_X1_X0_X0_X20_7 6 12 16 18
r0 54 56 0.0475
r1 41 62 0.0338756
r2 41 42 1.705
r3 40 62 0.0338756
r4 39 59 0.0517569
r5 39 40 1.0625
r6 37 56 0.0046983
r7 37 38 0.77
r8 32 38 0.0458784
r9 32 34 0.209231
r10 31 54 0.0046983
r11 30 52 0.0517569
r12 30 31 0.11
r13 29 52 0.0517569
r14 28 29 0.9075
r15 27 48 0.0517569
r16 26 62 0.00880368
r17 26 27 0.35
r18 25 44 0.0234599
r19 24 42 0.0446983
r20 24 25 0.6525
r21 22 28 0.0446983
r22 22 23 0.625
r23 21 23 0.0446983
r24 20 44 0.0517569
r25 20 21 1.5675
r26 19 59 15.61
r27 19 52 11.07
r28 19 48 11.07
r29 19 44 11.07
r30 19 34 3.8825
r31 18 19 0.921778
r32 16 19 1.89833
r33 14 19 8.27089
r34 14 15 109.615
r35 10 15 5.58729
r36 10 12 201.923
r37 8 19 8.27089
r38 8 9 86.1538
r39 4 9 5.58729
r40 4 6 174.615
.ends

.subckt PM_BITSLICE_X1_X0_X1_X20_7 6 12 16 18
r0 54 56 0.0475
r1 41 62 0.0338756
r2 41 42 1.705
r3 40 62 0.0338756
r4 39 59 0.0517569
r5 39 40 1.0625
r6 37 56 0.0046983
r7 37 38 0.77
r8 32 38 0.0458784
r9 32 34 0.209231
r10 31 54 0.0046983
r11 30 52 0.0517569
r12 30 31 0.11
r13 29 52 0.0517569
r14 28 29 0.9075
r15 27 48 0.0517569
r16 26 62 0.00880368
r17 26 27 0.35
r18 25 44 0.0234599
r19 24 42 0.0446983
r20 24 25 0.6525
r21 22 28 0.0446983
r22 22 23 0.625
r23 21 23 0.0446983
r24 20 44 0.0517569
r25 20 21 1.5675
r26 19 59 15.61
r27 19 52 11.07
r28 19 48 11.07
r29 19 44 11.07
r30 19 34 3.8825
r31 18 19 0.921778
r32 16 19 1.89833
r33 14 19 8.27089
r34 14 15 109.615
r35 10 15 5.58729
r36 10 12 201.923
r37 8 19 8.27089
r38 8 9 86.1538
r39 4 9 5.58729
r40 4 6 174.615
.ends

.subckt PM_BITSLICE_X1_X1_X0_X20_7 6 12 16 18
r0 54 56 0.0475
r1 41 62 0.0338756
r2 41 42 1.705
r3 40 62 0.0338756
r4 39 59 0.0517569
r5 39 40 1.0625
r6 37 56 0.0046983
r7 37 38 0.77
r8 32 38 0.0458784
r9 32 34 0.209231
r10 31 54 0.0046983
r11 30 52 0.0517569
r12 30 31 0.11
r13 29 52 0.0517569
r14 28 29 0.9075
r15 27 48 0.0517569
r16 26 62 0.00880368
r17 26 27 0.35
r18 25 44 0.0234599
r19 24 42 0.0446983
r20 24 25 0.6525
r21 22 28 0.0446983
r22 22 23 0.625
r23 21 23 0.0446983
r24 20 44 0.0517569
r25 20 21 1.5675
r26 19 59 15.61
r27 19 52 11.07
r28 19 48 11.07
r29 19 44 11.07
r30 19 34 3.8825
r31 18 19 0.921778
r32 16 19 1.89833
r33 14 19 8.27089
r34 14 15 109.615
r35 10 15 5.58729
r36 10 12 201.923
r37 8 19 8.27089
r38 8 9 86.1538
r39 4 9 5.58729
r40 4 6 174.615
.ends

.subckt PM_BITSLICE_X1_X1_X1_X20_7 6 12 16 18
r0 54 56 0.0475
r1 41 62 0.0338756
r2 41 42 1.705
r3 40 62 0.0338756
r4 39 59 0.0517569
r5 39 40 1.0625
r6 37 56 0.0046983
r7 37 38 0.77
r8 32 38 0.0458784
r9 32 34 0.209231
r10 31 54 0.0046983
r11 30 52 0.0517569
r12 30 31 0.11
r13 29 52 0.0517569
r14 28 29 0.9075
r15 27 48 0.0517569
r16 26 62 0.00880368
r17 26 27 0.35
r18 25 44 0.0234599
r19 24 42 0.0446983
r20 24 25 0.6525
r21 22 28 0.0446983
r22 22 23 0.625
r23 21 23 0.0446983
r24 20 44 0.0517569
r25 20 21 1.5675
r26 19 59 15.61
r27 19 52 11.07
r28 19 48 11.07
r29 19 44 11.07
r30 19 34 3.8825
r31 18 19 0.921778
r32 16 19 1.89833
r33 14 19 8.27089
r34 14 15 109.615
r35 10 15 5.58729
r36 10 12 201.923
r37 8 19 8.27089
r38 8 9 86.1538
r39 4 9 5.58729
r40 4 6 174.615
.ends

.subckt PM_BITSLICE_X1_X2_X0_X20_7 6 12 16 18
r0 54 56 0.0475
r1 41 62 0.0338756
r2 41 42 1.705
r3 40 62 0.0338756
r4 39 59 0.0517569
r5 39 40 1.0625
r6 37 56 0.0046983
r7 37 38 0.77
r8 32 38 0.0458784
r9 32 34 0.209231
r10 31 54 0.0046983
r11 30 52 0.0517569
r12 30 31 0.11
r13 29 52 0.0517569
r14 28 29 0.9075
r15 27 48 0.0517569
r16 26 62 0.00880368
r17 26 27 0.35
r18 25 44 0.0234599
r19 24 42 0.0446983
r20 24 25 0.6525
r21 22 28 0.0446983
r22 22 23 0.625
r23 21 23 0.0446983
r24 20 44 0.0517569
r25 20 21 1.5675
r26 19 59 15.61
r27 19 52 11.07
r28 19 48 11.07
r29 19 44 11.07
r30 19 34 3.8825
r31 18 19 0.921778
r32 16 19 1.89833
r33 14 19 8.27089
r34 14 15 109.615
r35 10 15 5.58729
r36 10 12 201.923
r37 8 19 8.27089
r38 8 9 86.1538
r39 4 9 5.58729
r40 4 6 174.615
.ends

.subckt PM_BITSLICE_X1_X2_X1_X20_7 6 12 16 18
r0 54 56 0.0475
r1 41 62 0.0338756
r2 41 42 1.705
r3 40 62 0.0338756
r4 39 59 0.0517569
r5 39 40 1.0625
r6 37 56 0.0046983
r7 37 38 0.77
r8 32 38 0.0458784
r9 32 34 0.209231
r10 31 54 0.0046983
r11 30 52 0.0517569
r12 30 31 0.11
r13 29 52 0.0517569
r14 28 29 0.9075
r15 27 48 0.0517569
r16 26 62 0.00880368
r17 26 27 0.35
r18 25 44 0.0234599
r19 24 42 0.0446983
r20 24 25 0.6525
r21 22 28 0.0446983
r22 22 23 0.625
r23 21 23 0.0446983
r24 20 44 0.0517569
r25 20 21 1.5675
r26 19 59 15.61
r27 19 52 11.07
r28 19 48 11.07
r29 19 44 11.07
r30 19 34 3.8825
r31 18 19 0.921778
r32 16 19 1.89833
r33 14 19 8.27089
r34 14 15 109.615
r35 10 15 5.58729
r36 10 12 201.923
r37 8 19 8.27089
r38 8 9 86.1538
r39 4 9 5.58729
r40 4 6 174.615
.ends

.subckt PM_BITSLICE_X1_X3_X0_X20_7 6 12 16 18
r0 54 56 0.0475
r1 41 62 0.0338756
r2 41 42 1.705
r3 40 62 0.0338756
r4 39 59 0.0517569
r5 39 40 1.0625
r6 37 56 0.0046983
r7 37 38 0.77
r8 32 38 0.0458784
r9 32 34 0.209231
r10 31 54 0.0046983
r11 30 52 0.0517569
r12 30 31 0.11
r13 29 52 0.0517569
r14 28 29 0.9075
r15 27 48 0.0517569
r16 26 62 0.00880368
r17 26 27 0.35
r18 25 44 0.0234599
r19 24 42 0.0446983
r20 24 25 0.6525
r21 22 28 0.0446983
r22 22 23 0.625
r23 21 23 0.0446983
r24 20 44 0.0517569
r25 20 21 1.5675
r26 19 59 15.61
r27 19 52 11.07
r28 19 48 11.07
r29 19 44 11.07
r30 19 34 3.8825
r31 18 19 0.921778
r32 16 19 1.89833
r33 14 19 8.27089
r34 14 15 109.615
r35 10 15 5.58729
r36 10 12 201.923
r37 8 19 8.27089
r38 8 9 86.1538
r39 4 9 5.58729
r40 4 6 174.615
.ends

.subckt PM_BITSLICE_X1_X3_X1_X20_7 6 12 16 18
r0 54 56 0.0475
r1 41 62 0.0338756
r2 41 42 1.705
r3 40 62 0.0338756
r4 39 59 0.0517569
r5 39 40 1.0625
r6 37 56 0.0046983
r7 37 38 0.77
r8 32 38 0.0458784
r9 32 34 0.209231
r10 31 54 0.0046983
r11 30 52 0.0517569
r12 30 31 0.11
r13 29 52 0.0517569
r14 28 29 0.9075
r15 27 48 0.0517569
r16 26 62 0.00880368
r17 26 27 0.35
r18 25 44 0.0234599
r19 24 42 0.0446983
r20 24 25 0.6525
r21 22 28 0.0446983
r22 22 23 0.625
r23 21 23 0.0446983
r24 20 44 0.0517569
r25 20 21 1.5675
r26 19 59 15.61
r27 19 52 11.07
r28 19 48 11.07
r29 19 44 11.07
r30 19 34 3.8825
r31 18 19 0.921778
r32 16 19 1.89833
r33 14 19 8.27089
r34 14 15 109.615
r35 10 15 5.58729
r36 10 12 201.923
r37 8 19 8.27089
r38 8 9 86.1538
r39 4 9 5.58729
r40 4 6 174.615
.ends

.subckt PM_BITSLICE_X0_X36_7 6 12 16 18
r0 54 56 0.0475
r1 41 62 0.0338756
r2 41 42 1.705
r3 40 62 0.0338756
r4 39 59 0.0517569
r5 39 40 1.0625
r6 37 56 0.0046983
r7 37 38 0.77
r8 32 38 0.0458784
r9 32 34 0.209231
r10 31 54 0.0046983
r11 30 52 0.0517569
r12 30 31 0.11
r13 29 52 0.0517569
r14 28 29 0.9075
r15 27 48 0.0517569
r16 26 62 0.00880368
r17 26 27 0.35
r18 25 44 0.0234599
r19 24 42 0.0446983
r20 24 25 0.6525
r21 22 28 0.0446983
r22 22 23 0.625
r23 21 23 0.0446983
r24 20 44 0.0517569
r25 20 21 1.5675
r26 19 59 15.61
r27 19 52 11.07
r28 19 48 11.07
r29 19 44 11.07
r30 19 34 3.8825
r31 18 19 0.921778
r32 16 19 1.89833
r33 14 19 8.27089
r34 14 15 109.615
r35 10 15 5.58729
r36 10 12 201.923
r37 8 19 8.27089
r38 8 9 86.1538
r39 4 9 5.58729
r40 4 6 174.615
.ends

.subckt PM_BITSLICE_X0_X37_7 6 12 16 18
r0 54 56 0.0475
r1 41 62 0.0338756
r2 41 42 1.705
r3 40 62 0.0338756
r4 39 59 0.0517569
r5 39 40 1.0625
r6 37 56 0.0046983
r7 37 38 0.77
r8 32 38 0.0458784
r9 32 34 0.209231
r10 31 54 0.0046983
r11 30 52 0.0517569
r12 30 31 0.11
r13 29 52 0.0517569
r14 28 29 0.9075
r15 27 48 0.0517569
r16 26 62 0.00880368
r17 26 27 0.35
r18 25 44 0.0234599
r19 24 42 0.0446983
r20 24 25 0.6525
r21 22 28 0.0446983
r22 22 23 0.625
r23 21 23 0.0446983
r24 20 44 0.0517569
r25 20 21 1.5675
r26 19 59 15.61
r27 19 52 11.07
r28 19 48 11.07
r29 19 44 11.07
r30 19 34 3.8825
r31 18 19 0.921778
r32 16 19 1.89833
r33 14 19 8.27089
r34 14 15 109.615
r35 10 15 5.58729
r36 10 12 201.923
r37 8 19 8.27089
r38 8 9 86.1538
r39 4 9 5.58729
r40 4 6 174.615
.ends

.subckt PM_BITSLICE_X0_X38_7 6 12 16 18
r0 54 56 0.0475
r1 41 62 0.0338756
r2 41 42 1.705
r3 40 62 0.0338756
r4 39 59 0.0517569
r5 39 40 1.0625
r6 37 56 0.0046983
r7 37 38 0.77
r8 32 38 0.0458784
r9 32 34 0.209231
r10 31 54 0.0046983
r11 30 52 0.0517569
r12 30 31 0.11
r13 29 52 0.0517569
r14 28 29 0.9075
r15 27 48 0.0517569
r16 26 62 0.00880368
r17 26 27 0.35
r18 25 44 0.0234599
r19 24 42 0.0446983
r20 24 25 0.6525
r21 22 28 0.0446983
r22 22 23 0.625
r23 21 23 0.0446983
r24 20 44 0.0517569
r25 20 21 1.5675
r26 19 59 15.61
r27 19 52 11.07
r28 19 48 11.07
r29 19 44 11.07
r30 19 34 3.8825
r31 18 19 0.921778
r32 16 19 1.89833
r33 14 19 8.27089
r34 14 15 109.615
r35 10 15 5.58729
r36 10 12 201.923
r37 8 19 8.27089
r38 8 9 86.1538
r39 4 9 5.58729
r40 4 6 174.615
.ends

.subckt PM_BITSLICE_X0_X39_7 6 12 16 18
r0 54 56 0.0475
r1 41 62 0.0338756
r2 41 42 1.705
r3 40 62 0.0338756
r4 39 59 0.0517569
r5 39 40 1.0625
r6 37 56 0.0046983
r7 37 38 0.77
r8 32 38 0.0458784
r9 32 34 0.209231
r10 31 54 0.0046983
r11 30 52 0.0517569
r12 30 31 0.11
r13 29 52 0.0517569
r14 28 29 0.9075
r15 27 48 0.0517569
r16 26 62 0.00880368
r17 26 27 0.35
r18 25 44 0.0234599
r19 24 42 0.0446983
r20 24 25 0.6525
r21 22 28 0.0446983
r22 22 23 0.625
r23 21 23 0.0446983
r24 20 44 0.0517569
r25 20 21 1.5675
r26 19 59 15.61
r27 19 52 11.07
r28 19 48 11.07
r29 19 44 11.07
r30 19 34 3.8825
r31 18 19 0.921778
r32 16 19 1.89833
r33 14 19 8.27089
r34 14 15 109.615
r35 10 15 5.58729
r36 10 12 201.923
r37 8 19 8.27089
r38 8 9 86.1538
r39 4 9 5.58729
r40 4 6 174.615
.ends

.subckt PM_BITSLICE_X1_X4_X0_6 6 10 28 30
r0 78 121 0.017931
r1 69 70 0.146
r2 67 68 0.534
r3 61 63 0.0525
r4 56 66 0.0517569
r5 56 58 0.209231
r6 54 65 0.101866
r7 54 66 0.28
r8 52 121 0.0276608
r9 52 53 0.105
r10 50 51 0.2975
r11 48 65 0.0174182
r12 48 49 0.1175
r13 43 50 0.0458784
r14 43 45 0.104615
r15 42 63 0.0046983
r16 41 53 0.0446983
r17 41 42 0.635
r18 40 49 0.0446983
r19 39 61 0.0046983
r20 39 40 0.2875
r21 37 51 0.0446983
r22 37 38 0.18
r23 36 73 0.0559551
r24 35 38 0.0446983
r25 35 36 0.11
r26 34 88 11.07
r27 34 67 0.0477743
r28 34 88 0.68
r29 33 83 11.07
r30 33 69 0.0477743
r31 33 83 0.68
r32 32 70 0.0477743
r33 32 78 0.68
r34 32 58 3.8825
r35 31 68 0.0477743
r36 31 73 0.68
r37 31 45 5.20333
r38 30 32 1.03022
r39 28 31 1.06083
r40 24 26 7.30769
r41 20 22 18.8462
r42 18 19 634.615
r43 17 34 4.63979
r44 16 18 5.58729
r45 16 17 13.8462
r46 15 26 0.587288
r47 14 22 0.587288
r48 14 15 76.9231
r49 13 33 4.63979
r50 12 19 5.58729
r51 12 13 23.0769
r52 8 24 0.587288
r53 8 10 161.923
r54 4 34 8.27089
r55 4 6 87.6923
r56 3 20 0.587288
r57 2 33 8.27089
r58 2 3 13.8462
.ends

.subckt PM_BITSLICE_X1_X4_X1_6 6 10 28 30
r0 78 121 0.017931
r1 69 70 0.146
r2 67 68 0.534
r3 61 63 0.0525
r4 56 66 0.0517569
r5 56 58 0.209231
r6 54 65 0.101866
r7 54 66 0.28
r8 52 121 0.0276608
r9 52 53 0.105
r10 50 51 0.2975
r11 48 65 0.0174182
r12 48 49 0.1175
r13 43 50 0.0458784
r14 43 45 0.104615
r15 42 63 0.0046983
r16 41 53 0.0446983
r17 41 42 0.635
r18 40 49 0.0446983
r19 39 61 0.0046983
r20 39 40 0.2875
r21 37 51 0.0446983
r22 37 38 0.18
r23 36 73 0.0559551
r24 35 38 0.0446983
r25 35 36 0.11
r26 34 88 11.07
r27 34 67 0.0477743
r28 34 88 0.68
r29 33 83 11.07
r30 33 69 0.0477743
r31 33 83 0.68
r32 32 70 0.0477743
r33 32 78 0.68
r34 32 58 3.8825
r35 31 68 0.0477743
r36 31 73 0.68
r37 31 45 5.20333
r38 30 32 1.03022
r39 28 31 1.06083
r40 24 26 7.30769
r41 20 22 18.8462
r42 18 19 634.615
r43 17 34 4.63979
r44 16 18 5.58729
r45 16 17 13.8462
r46 15 26 0.587288
r47 14 22 0.587288
r48 14 15 76.9231
r49 13 33 4.63979
r50 12 19 5.58729
r51 12 13 23.0769
r52 8 24 0.587288
r53 8 10 161.923
r54 4 34 8.27089
r55 4 6 87.6923
r56 3 20 0.587288
r57 2 33 8.27089
r58 2 3 13.8462
.ends

.subckt PM_BITSLICE_X1_X5_X0_6 6 10 28 30
r0 78 121 0.017931
r1 69 70 0.146
r2 67 68 0.534
r3 61 63 0.0525
r4 56 66 0.0517569
r5 56 58 0.209231
r6 54 65 0.101866
r7 54 66 0.28
r8 52 121 0.0276608
r9 52 53 0.105
r10 50 51 0.2975
r11 48 65 0.0174182
r12 48 49 0.1175
r13 43 50 0.0458784
r14 43 45 0.104615
r15 42 63 0.0046983
r16 41 53 0.0446983
r17 41 42 0.635
r18 40 49 0.0446983
r19 39 61 0.0046983
r20 39 40 0.2875
r21 37 51 0.0446983
r22 37 38 0.18
r23 36 73 0.0559551
r24 35 38 0.0446983
r25 35 36 0.11
r26 34 88 11.07
r27 34 67 0.0477743
r28 34 88 0.68
r29 33 83 11.07
r30 33 69 0.0477743
r31 33 83 0.68
r32 32 70 0.0477743
r33 32 78 0.68
r34 32 58 3.8825
r35 31 68 0.0477743
r36 31 73 0.68
r37 31 45 5.20333
r38 30 32 1.03022
r39 28 31 1.06083
r40 24 26 7.30769
r41 20 22 18.8462
r42 18 19 634.615
r43 17 34 4.63979
r44 16 18 5.58729
r45 16 17 13.8462
r46 15 26 0.587288
r47 14 22 0.587288
r48 14 15 76.9231
r49 13 33 4.63979
r50 12 19 5.58729
r51 12 13 23.0769
r52 8 24 0.587288
r53 8 10 161.923
r54 4 34 8.27089
r55 4 6 87.6923
r56 3 20 0.587288
r57 2 33 8.27089
r58 2 3 13.8462
.ends

.subckt PM_BITSLICE_X1_X5_X1_6 6 10 28 30
r0 78 121 0.017931
r1 69 70 0.146
r2 67 68 0.534
r3 61 63 0.0525
r4 56 66 0.0517569
r5 56 58 0.209231
r6 54 65 0.101866
r7 54 66 0.28
r8 52 121 0.0276608
r9 52 53 0.105
r10 50 51 0.2975
r11 48 65 0.0174182
r12 48 49 0.1175
r13 43 50 0.0458784
r14 43 45 0.104615
r15 42 63 0.0046983
r16 41 53 0.0446983
r17 41 42 0.635
r18 40 49 0.0446983
r19 39 61 0.0046983
r20 39 40 0.2875
r21 37 51 0.0446983
r22 37 38 0.18
r23 36 73 0.0559551
r24 35 38 0.0446983
r25 35 36 0.11
r26 34 88 11.07
r27 34 67 0.0477743
r28 34 88 0.68
r29 33 83 11.07
r30 33 69 0.0477743
r31 33 83 0.68
r32 32 70 0.0477743
r33 32 78 0.68
r34 32 58 3.8825
r35 31 68 0.0477743
r36 31 73 0.68
r37 31 45 5.20333
r38 30 32 1.03022
r39 28 31 1.06083
r40 24 26 7.30769
r41 20 22 18.8462
r42 18 19 634.615
r43 17 34 4.63979
r44 16 18 5.58729
r45 16 17 13.8462
r46 15 26 0.587288
r47 14 22 0.587288
r48 14 15 76.9231
r49 13 33 4.63979
r50 12 19 5.58729
r51 12 13 23.0769
r52 8 24 0.587288
r53 8 10 161.923
r54 4 34 8.27089
r55 4 6 87.6923
r56 3 20 0.587288
r57 2 33 8.27089
r58 2 3 13.8462
.ends

.subckt PM_BITSLICE_X1_X6_X0_6 6 10 28 30
r0 78 121 0.017931
r1 69 70 0.146
r2 67 68 0.534
r3 61 63 0.0525
r4 56 66 0.0517569
r5 56 58 0.209231
r6 54 65 0.101866
r7 54 66 0.28
r8 52 121 0.0276608
r9 52 53 0.105
r10 50 51 0.2975
r11 48 65 0.0174182
r12 48 49 0.1175
r13 43 50 0.0458784
r14 43 45 0.104615
r15 42 63 0.0046983
r16 41 53 0.0446983
r17 41 42 0.635
r18 40 49 0.0446983
r19 39 61 0.0046983
r20 39 40 0.2875
r21 37 51 0.0446983
r22 37 38 0.18
r23 36 73 0.0559551
r24 35 38 0.0446983
r25 35 36 0.11
r26 34 88 11.07
r27 34 67 0.0477743
r28 34 88 0.68
r29 33 83 11.07
r30 33 69 0.0477743
r31 33 83 0.68
r32 32 70 0.0477743
r33 32 78 0.68
r34 32 58 3.8825
r35 31 68 0.0477743
r36 31 73 0.68
r37 31 45 5.20333
r38 30 32 1.03022
r39 28 31 1.06083
r40 24 26 7.30769
r41 20 22 18.8462
r42 18 19 634.615
r43 17 34 4.63979
r44 16 18 5.58729
r45 16 17 13.8462
r46 15 26 0.587288
r47 14 22 0.587288
r48 14 15 76.9231
r49 13 33 4.63979
r50 12 19 5.58729
r51 12 13 23.0769
r52 8 24 0.587288
r53 8 10 161.923
r54 4 34 8.27089
r55 4 6 87.6923
r56 3 20 0.587288
r57 2 33 8.27089
r58 2 3 13.8462
.ends

.subckt PM_BITSLICE_X1_X6_X1_6 6 10 28 30
r0 78 121 0.017931
r1 69 70 0.146
r2 67 68 0.534
r3 61 63 0.0525
r4 56 66 0.0517569
r5 56 58 0.209231
r6 54 65 0.101866
r7 54 66 0.28
r8 52 121 0.0276608
r9 52 53 0.105
r10 50 51 0.2975
r11 48 65 0.0174182
r12 48 49 0.1175
r13 43 50 0.0458784
r14 43 45 0.104615
r15 42 63 0.0046983
r16 41 53 0.0446983
r17 41 42 0.635
r18 40 49 0.0446983
r19 39 61 0.0046983
r20 39 40 0.2875
r21 37 51 0.0446983
r22 37 38 0.18
r23 36 73 0.0559551
r24 35 38 0.0446983
r25 35 36 0.11
r26 34 88 11.07
r27 34 67 0.0477743
r28 34 88 0.68
r29 33 83 11.07
r30 33 69 0.0477743
r31 33 83 0.68
r32 32 70 0.0477743
r33 32 78 0.68
r34 32 58 3.8825
r35 31 68 0.0477743
r36 31 73 0.68
r37 31 45 5.20333
r38 30 32 1.03022
r39 28 31 1.06083
r40 24 26 7.30769
r41 20 22 18.8462
r42 18 19 634.615
r43 17 34 4.63979
r44 16 18 5.58729
r45 16 17 13.8462
r46 15 26 0.587288
r47 14 22 0.587288
r48 14 15 76.9231
r49 13 33 4.63979
r50 12 19 5.58729
r51 12 13 23.0769
r52 8 24 0.587288
r53 8 10 161.923
r54 4 34 8.27089
r55 4 6 87.6923
r56 3 20 0.587288
r57 2 33 8.27089
r58 2 3 13.8462
.ends

.subckt PM_BITSLICE_X1_X7_X0_6 6 10 28 30
r0 78 121 0.017931
r1 69 70 0.146
r2 67 68 0.534
r3 61 63 0.0525
r4 56 66 0.0517569
r5 56 58 0.209231
r6 54 65 0.101866
r7 54 66 0.28
r8 52 121 0.0276608
r9 52 53 0.105
r10 50 51 0.2975
r11 48 65 0.0174182
r12 48 49 0.1175
r13 43 50 0.0458784
r14 43 45 0.104615
r15 42 63 0.0046983
r16 41 53 0.0446983
r17 41 42 0.635
r18 40 49 0.0446983
r19 39 61 0.0046983
r20 39 40 0.2875
r21 37 51 0.0446983
r22 37 38 0.18
r23 36 73 0.0559551
r24 35 38 0.0446983
r25 35 36 0.11
r26 34 88 11.07
r27 34 67 0.0477743
r28 34 88 0.68
r29 33 83 11.07
r30 33 69 0.0477743
r31 33 83 0.68
r32 32 70 0.0477743
r33 32 78 0.68
r34 32 58 3.8825
r35 31 68 0.0477743
r36 31 73 0.68
r37 31 45 5.20333
r38 30 32 1.03022
r39 28 31 1.06083
r40 24 26 7.30769
r41 20 22 18.8462
r42 18 19 634.615
r43 17 34 4.63979
r44 16 18 5.58729
r45 16 17 13.8462
r46 15 26 0.587288
r47 14 22 0.587288
r48 14 15 76.9231
r49 13 33 4.63979
r50 12 19 5.58729
r51 12 13 23.0769
r52 8 24 0.587288
r53 8 10 161.923
r54 4 34 8.27089
r55 4 6 87.6923
r56 3 20 0.587288
r57 2 33 8.27089
r58 2 3 13.8462
.ends

.subckt PM_BITSLICE_X1_X7_X1_6 6 10 28 30
r0 78 121 0.017931
r1 69 70 0.146
r2 67 68 0.534
r3 61 63 0.0525
r4 56 66 0.0517569
r5 56 58 0.209231
r6 54 65 0.101866
r7 54 66 0.28
r8 52 121 0.0276608
r9 52 53 0.105
r10 50 51 0.2975
r11 48 65 0.0174182
r12 48 49 0.1175
r13 43 50 0.0458784
r14 43 45 0.104615
r15 42 63 0.0046983
r16 41 53 0.0446983
r17 41 42 0.635
r18 40 49 0.0446983
r19 39 61 0.0046983
r20 39 40 0.2875
r21 37 51 0.0446983
r22 37 38 0.18
r23 36 73 0.0559551
r24 35 38 0.0446983
r25 35 36 0.11
r26 34 88 11.07
r27 34 67 0.0477743
r28 34 88 0.68
r29 33 83 11.07
r30 33 69 0.0477743
r31 33 83 0.68
r32 32 70 0.0477743
r33 32 78 0.68
r34 32 58 3.8825
r35 31 68 0.0477743
r36 31 73 0.68
r37 31 45 5.20333
r38 30 32 1.03022
r39 28 31 1.06083
r40 24 26 7.30769
r41 20 22 18.8462
r42 18 19 634.615
r43 17 34 4.63979
r44 16 18 5.58729
r45 16 17 13.8462
r46 15 26 0.587288
r47 14 22 0.587288
r48 14 15 76.9231
r49 13 33 4.63979
r50 12 19 5.58729
r51 12 13 23.0769
r52 8 24 0.587288
r53 8 10 161.923
r54 4 34 8.27089
r55 4 6 87.6923
r56 3 20 0.587288
r57 2 33 8.27089
r58 2 3 13.8462
.ends

.subckt PM_BITSLICE_X0_X40_6 6 10 28 30
r0 78 121 0.017931
r1 69 70 0.146
r2 67 68 0.534
r3 61 63 0.0525
r4 56 66 0.0517569
r5 56 58 0.209231
r6 54 65 0.101866
r7 54 66 0.28
r8 52 121 0.0276608
r9 52 53 0.105
r10 50 51 0.2975
r11 48 65 0.0174182
r12 48 49 0.1175
r13 43 50 0.0458784
r14 43 45 0.104615
r15 42 63 0.0046983
r16 41 53 0.0446983
r17 41 42 0.635
r18 40 49 0.0446983
r19 39 61 0.0046983
r20 39 40 0.2875
r21 37 51 0.0446983
r22 37 38 0.18
r23 36 73 0.0559551
r24 35 38 0.0446983
r25 35 36 0.11
r26 34 88 11.07
r27 34 67 0.0477743
r28 34 88 0.68
r29 33 83 11.07
r30 33 69 0.0477743
r31 33 83 0.68
r32 32 70 0.0477743
r33 32 78 0.68
r34 32 58 3.8825
r35 31 68 0.0477743
r36 31 73 0.68
r37 31 45 5.20333
r38 30 32 1.03022
r39 28 31 1.06083
r40 24 26 7.30769
r41 20 22 18.8462
r42 18 19 634.615
r43 17 34 4.63979
r44 16 18 5.58729
r45 16 17 13.8462