* File: bitslice.pex.netlist.pex
* Created: Mon Apr 22 15:28:35 2019
* Program "Calibre xRC"
* Version "v2012.2_36.25"
* Nominal Temperature: 27C
* Circuit Temperature: 27C
* 
.subckt PM_BITSLICE_X1_X8_X0_7 6 8 12 14 16 18 19 21 22 24 26 29 38 42 44
c22 62 0 15.36f
c23 59 0 77.16f
c24 56 0 44.88f
c25 52 0 57.6f
c26 44 0 57.6f
c27 42 0 599.808f
c28 40 0 373.648f
c29 38 0 268.608f
c30 34 0 234.514f
c31 32 0 32.18f
c32 31 0 38.064f
c33 29 0 312.808f
c34 27 0 70.4f
c35 26 0 120.464f
c36 24 0 255.104f
c37 23 0 28.16f
c38 22 0 245.744f
c39 21 0 551.104f
c40 19 0 388f
c41 15 0 29.38f
c42 14 0 321.598f
c43 12 0 799.254f
c44 9 0 29.38f
c45 8 0 252.668f
c46 6 0 634.274f
r47 54 56 0.0475
r48 41 62 0.0338756
r49 41 42 1.705
r50 40 62 0.0338756
r51 39 59 0.0517569
r52 39 40 1.0625
r53 37 56 0.0046983
r54 37 38 0.77
r55 32 38 0.0458784
r56 32 34 0.209231
r57 31 54 0.0046983
r58 30 52 0.0517569
r59 30 31 0.11
r60 29 52 0.0517569
r61 28 29 0.9075
r62 27 48 0.0517569
r63 26 62 0.00880368
r64 26 27 0.35
r65 25 44 0.0234599
r66 24 42 0.0446983
r67 24 25 0.6525
r68 22 28 0.0446983
r69 22 23 0.625
r70 21 23 0.0446983
r71 20 44 0.0517569
r72 20 21 1.5675
r73 19 59 15.61
r74 19 52 11.07
r75 19 48 11.07
r76 19 44 11.07
r77 19 34 3.8825
r78 18 19 0.921778
r79 16 19 1.89833
r80 14 19 8.27089
r81 14 15 109.615
r82 10 15 5.58729
r83 10 12 201.923
r84 8 19 8.27089
r85 8 9 86.1538
r86 4 9 5.58729
r87 4 6 174.615
.ends

.subckt PM_BITSLICE_X1_X8_X1_7 6 8 12 14 16 18 19 21 22 24 26 29 38 42 44
c23 62 0 15.36f
c24 59 0 77.16f
c25 56 0 44.88f
c26 52 0 57.6f
c27 44 0 57.6f
c28 42 0 599.808f
c29 40 0 373.648f
c30 38 0 268.608f
c31 34 0 234.514f
c32 32 0 32.18f
c33 31 0 38.064f
c34 29 0 312.808f
c35 27 0 70.4f
c36 26 0 120.464f
c37 24 0 255.104f
c38 23 0 28.16f
c39 22 0 245.744f
c40 21 0 551.104f
c41 19 0 388f
c42 15 0 29.38f
c43 14 0 321.598f
c44 12 0 799.254f
c45 9 0 29.38f
c46 8 0 252.668f
c47 6 0 634.274f
r48 54 56 0.0475
r49 41 62 0.0338756
r50 41 42 1.705
r51 40 62 0.0338756
r52 39 59 0.0517569
r53 39 40 1.0625
r54 37 56 0.0046983
r55 37 38 0.77
r56 32 38 0.0458784
r57 32 34 0.209231
r58 31 54 0.0046983
r59 30 52 0.0517569
r60 30 31 0.11
r61 29 52 0.0517569
r62 28 29 0.9075
r63 27 48 0.0517569
r64 26 62 0.00880368
r65 26 27 0.35
r66 25 44 0.0234599
r67 24 42 0.0446983
r68 24 25 0.6525
r69 22 28 0.0446983
r70 22 23 0.625
r71 21 23 0.0446983
r72 20 44 0.0517569
r73 20 21 1.5675
r74 19 59 15.61
r75 19 52 11.07
r76 19 48 11.07
r77 19 44 11.07
r78 19 34 3.8825
r79 18 19 0.921778
r80 16 19 1.89833
r81 14 19 8.27089
r82 14 15 109.615
r83 10 15 5.58729
r84 10 12 201.923
r85 8 19 8.27089
r86 8 9 86.1538
r87 4 9 5.58729
r88 4 6 174.615
.ends

.subckt PM_BITSLICE_X1_X8_X2_7 6 8 12 14 16 18 19 21 22 24 26 29 34 38 40 42 44
c25 62 0 15.36f
c26 59 0 77.16f
c27 56 0 44.88f
c28 52 0 57.6f
c29 44 0 57.6f
c30 42 0 599.808f
c31 40 0 373.648f
c32 38 0 268.608f
c33 34 0 234.514f
c34 32 0 32.18f
c35 31 0 38.064f
c36 29 0 312.808f
c37 27 0 70.4f
c38 26 0 120.464f
c39 24 0 255.104f
c40 23 0 28.16f
c41 22 0 245.744f
c42 21 0 551.104f
c43 19 0 388f
c44 15 0 29.38f
c45 14 0 321.598f
c46 12 0 799.254f
c47 9 0 29.38f
c48 8 0 252.668f
c49 6 0 634.274f
r50 54 56 0.0475
r51 41 62 0.0338756
r52 41 42 1.705
r53 40 62 0.0338756
r54 39 59 0.0517569
r55 39 40 1.0625
r56 37 56 0.0046983
r57 37 38 0.77
r58 32 38 0.0458784
r59 32 34 0.209231
r60 31 54 0.0046983
r61 30 52 0.0517569
r62 30 31 0.11
r63 29 52 0.0517569
r64 28 29 0.9075
r65 27 48 0.0517569
r66 26 62 0.00880368
r67 26 27 0.35
r68 25 44 0.0234599
r69 24 42 0.0446983
r70 24 25 0.6525
r71 22 28 0.0446983
r72 22 23 0.625
r73 21 23 0.0446983
r74 20 44 0.0517569
r75 20 21 1.5675
r76 19 59 15.61
r77 19 52 11.07
r78 19 48 11.07
r79 19 44 11.07
r80 19 34 3.8825
r81 18 19 0.921778
r82 16 19 1.89833
r83 14 19 8.27089
r84 14 15 109.615
r85 10 15 5.58729
r86 10 12 201.923
r87 8 19 8.27089
r88 8 9 86.1538
r89 4 9 5.58729
r90 4 6 174.615
.ends

.subckt PM_BITSLICE_X1_X8_X3_7 6 8 12 14 15 16 18 19 21 22 24 26 29 34 38 40 42
+ 44
c33 62 0 15.36f
c34 59 0 77.16f
c35 56 0 44.88f
c36 52 0 57.6f
c37 44 0 57.6f
c38 42 0 599.808f
c39 40 0 373.648f
c40 38 0 268.608f
c41 34 0 234.514f
c42 32 0 32.18f
c43 31 0 38.064f
c44 29 0 312.808f
c45 27 0 70.4f
c46 26 0 120.464f
c47 24 0 255.104f
c48 23 0 28.16f
c49 22 0 245.744f
c50 21 0 551.104f
c51 19 0 388f
c52 15 0 29.38f
c53 14 0 321.598f
c54 12 0 799.254f
c55 9 0 29.38f
c56 8 0 252.668f
c57 6 0 634.274f
r58 54 56 0.0475
r59 41 62 0.0338756
r60 41 42 1.705
r61 40 62 0.0338756
r62 39 59 0.0517569
r63 39 40 1.0625
r64 37 56 0.0046983
r65 37 38 0.77
r66 32 38 0.0458784
r67 32 34 0.209231
r68 31 54 0.0046983
r69 30 52 0.0517569
r70 30 31 0.11
r71 29 52 0.0517569
r72 28 29 0.9075
r73 27 48 0.0517569
r74 26 62 0.00880368
r75 26 27 0.35
r76 25 44 0.0234599
r77 24 42 0.0446983
r78 24 25 0.6525
r79 22 28 0.0446983
r80 22 23 0.625
r81 21 23 0.0446983
r82 20 44 0.0517569
r83 20 21 1.5675
r84 19 59 15.61
r85 19 52 11.07
r86 19 48 11.07
r87 19 44 11.07
r88 19 34 3.8825
r89 18 19 0.921778
r90 16 19 1.89833
r91 14 19 8.27089
r92 14 15 109.615
r93 10 15 5.58729
r94 10 12 201.923
r95 8 19 8.27089
r96 8 9 86.1538
r97 4 9 5.58729
r98 4 6 174.615
.ends

.subckt PM_BITSLICE_X1_X8_X4_7 6 8 12 14 16 18 19 21 22 24 26 29 34 38 40 42 44
c26 62 0 15.36f
c27 59 0 77.16f
c28 56 0 44.88f
c29 52 0 57.6f
c30 44 0 57.6f
c31 42 0 599.808f
c32 40 0 373.648f
c33 38 0 268.608f
c34 34 0 234.514f
c35 32 0 32.18f
c36 31 0 38.064f
c37 29 0 312.808f
c38 27 0 70.4f
c39 26 0 120.464f
c40 24 0 255.104f
c41 23 0 28.16f
c42 22 0 245.744f
c43 21 0 551.104f
c44 19 0 388f
c45 15 0 29.38f
c46 14 0 321.598f
c47 12 0 799.254f
c48 9 0 29.38f
c49 8 0 252.668f
c50 6 0 634.274f
r51 54 56 0.0475
r52 41 62 0.0338756
r53 41 42 1.705
r54 40 62 0.0338756
r55 39 59 0.0517569
r56 39 40 1.0625
r57 37 56 0.0046983
r58 37 38 0.77
r59 32 38 0.0458784
r60 32 34 0.209231
r61 31 54 0.0046983
r62 30 52 0.0517569
r63 30 31 0.11
r64 29 52 0.0517569
r65 28 29 0.9075
r66 27 48 0.0517569
r67 26 62 0.00880368
r68 26 27 0.35
r69 25 44 0.0234599
r70 24 42 0.0446983
r71 24 25 0.6525
r72 22 28 0.0446983
r73 22 23 0.625
r74 21 23 0.0446983
r75 20 44 0.0517569
r76 20 21 1.5675
r77 19 59 15.61
r78 19 52 11.07
r79 19 48 11.07
r80 19 44 11.07
r81 19 34 3.8825
r82 18 19 0.921778
r83 16 19 1.89833
r84 14 19 8.27089
r85 14 15 109.615
r86 10 15 5.58729
r87 10 12 201.923
r88 8 19 8.27089
r89 8 9 86.1538
r90 4 9 5.58729
r91 4 6 174.615
.ends

.subckt PM_BITSLICE_X1_X8_X5_7 6 8 12 14 16 18 19 21 22 24 26 29 34 38 42 44
c23 62 0 15.36f
c24 59 0 77.16f
c25 56 0 44.88f
c26 52 0 57.6f
c27 44 0 57.6f
c28 42 0 599.808f
c29 40 0 373.648f
c30 38 0 268.608f
c31 34 0 234.514f
c32 32 0 32.18f
c33 31 0 38.064f
c34 29 0 312.808f
c35 27 0 70.4f
c36 26 0 120.464f
c37 24 0 255.104f
c38 23 0 28.16f
c39 22 0 245.744f
c40 21 0 551.104f
c41 19 0 388f
c42 15 0 29.38f
c43 14 0 321.598f
c44 12 0 799.254f
c45 9 0 29.38f
c46 8 0 252.668f
c47 6 0 634.274f
r48 54 56 0.0475
r49 41 62 0.0338756
r50 41 42 1.705
r51 40 62 0.0338756
r52 39 59 0.0517569
r53 39 40 1.0625
r54 37 56 0.0046983
r55 37 38 0.77
r56 32 38 0.0458784
r57 32 34 0.209231
r58 31 54 0.0046983
r59 30 52 0.0517569
r60 30 31 0.11
r61 29 52 0.0517569
r62 28 29 0.9075
r63 27 48 0.0517569
r64 26 62 0.00880368
r65 26 27 0.35
r66 25 44 0.0234599
r67 24 42 0.0446983
r68 24 25 0.6525
r69 22 28 0.0446983
r70 22 23 0.625
r71 21 23 0.0446983
r72 20 44 0.0517569
r73 20 21 1.5675
r74 19 59 15.61
r75 19 52 11.07
r76 19 48 11.07
r77 19 44 11.07
r78 19 34 3.8825
r79 18 19 0.921778
r80 16 19 1.89833
r81 14 19 8.27089
r82 14 15 109.615
r83 10 15 5.58729
r84 10 12 201.923
r85 8 19 8.27089
r86 8 9 86.1538
r87 4 9 5.58729
r88 4 6 174.615
.ends

.subckt PM_BITSLICE_X1_X8_X6_7 6 8 12 14 16 18 19 21 22 24 26 29 38 40 42 44 62
c32 62 0 15.36f
c33 59 0 77.16f
c34 56 0 44.88f
c35 52 0 57.6f
c36 44 0 57.6f
c37 42 0 599.808f
c38 40 0 373.648f
c39 38 0 268.608f
c40 34 0 234.514f
c41 32 0 32.18f
c42 31 0 38.064f
c43 29 0 312.808f
c44 27 0 70.4f
c45 26 0 120.464f
c46 24 0 255.104f
c47 23 0 28.16f
c48 22 0 245.744f
c49 21 0 551.104f
c50 19 0 388f
c51 15 0 29.38f
c52 14 0 321.598f
c53 12 0 799.254f
c54 9 0 29.38f
c55 8 0 252.668f
c56 6 0 634.274f
r57 54 56 0.0475
r58 41 62 0.0338756
r59 41 42 1.705
r60 40 62 0.0338756
r61 39 59 0.0517569
r62 39 40 1.0625
r63 37 56 0.0046983
r64 37 38 0.77
r65 32 38 0.0458784
r66 32 34 0.209231
r67 31 54 0.0046983
r68 30 52 0.0517569
r69 30 31 0.11
r70 29 52 0.0517569
r71 28 29 0.9075
r72 27 48 0.0517569
r73 26 62 0.00880368
r74 26 27 0.35
r75 25 44 0.0234599
r76 24 42 0.0446983
r77 24 25 0.6525
r78 22 28 0.0446983
r79 22 23 0.625
r80 21 23 0.0446983
r81 20 44 0.0517569
r82 20 21 1.5675
r83 19 59 15.61
r84 19 52 11.07
r85 19 48 11.07
r86 19 44 11.07
r87 19 34 3.8825
r88 18 19 0.921778
r89 16 19 1.89833
r90 14 19 8.27089
r91 14 15 109.615
r92 10 15 5.58729
r93 10 12 201.923
r94 8 19 8.27089
r95 8 9 86.1538
r96 4 9 5.58729
r97 4 6 174.615
.ends

.subckt PM_BITSLICE_X1_X9_X0_7 6 8 12 14 16 18 19 21 22 24 26 29 38 42 44
c22 62 0 15.36f
c23 59 0 77.16f
c24 56 0 44.88f
c25 52 0 57.6f
c26 44 0 57.6f
c27 42 0 599.808f
c28 40 0 373.648f
c29 38 0 268.608f
c30 34 0 234.514f
c31 32 0 32.18f
c32 31 0 38.064f
c33 29 0 312.808f
c34 27 0 70.4f
c35 26 0 120.464f
c36 24 0 255.104f
c37 23 0 28.16f
c38 22 0 245.744f
c39 21 0 551.104f
c40 19 0 388f
c41 15 0 29.38f
c42 14 0 321.598f
c43 12 0 799.254f
c44 9 0 29.38f
c45 8 0 252.668f
c46 6 0 634.274f
r47 54 56 0.0475
r48 41 62 0.0338756
r49 41 42 1.705
r50 40 62 0.0338756
r51 39 59 0.0517569
r52 39 40 1.0625
r53 37 56 0.0046983
r54 37 38 0.77
r55 32 38 0.0458784
r56 32 34 0.209231
r57 31 54 0.0046983
r58 30 52 0.0517569
r59 30 31 0.11
r60 29 52 0.0517569
r61 28 29 0.9075
r62 27 48 0.0517569
r63 26 62 0.00880368
r64 26 27 0.35
r65 25 44 0.0234599
r66 24 42 0.0446983
r67 24 25 0.6525
r68 22 28 0.0446983
r69 22 23 0.625
r70 21 23 0.0446983
r71 20 44 0.0517569
r72 20 21 1.5675
r73 19 59 15.61
r74 19 52 11.07
r75 19 48 11.07
r76 19 44 11.07
r77 19 34 3.8825
r78 18 19 0.921778
r79 16 19 1.89833
r80 14 19 8.27089
r81 14 15 109.615
r82 10 15 5.58729
r83 10 12 201.923
r84 8 19 8.27089
r85 8 9 86.1538
r86 4 9 5.58729
r87 4 6 174.615
.ends

.subckt PM_BITSLICE_X1_X9_X1_7 6 8 12 14 16 18 19 21 22 24 26 29 38 42 44
c23 62 0 15.36f
c24 59 0 77.16f
c25 56 0 44.88f
c26 52 0 57.6f
c27 44 0 57.6f
c28 42 0 599.808f
c29 40 0 373.648f
c30 38 0 268.608f
c31 34 0 234.514f
c32 32 0 32.18f
c33 31 0 38.064f
c34 29 0 312.808f
c35 27 0 70.4f
c36 26 0 120.464f
c37 24 0 255.104f
c38 23 0 28.16f
c39 22 0 245.744f
c40 21 0 551.104f
c41 19 0 388f
c42 15 0 29.38f
c43 14 0 321.598f
c44 12 0 799.254f
c45 9 0 29.38f
c46 8 0 252.668f
c47 6 0 634.274f
r48 54 56 0.0475
r49 41 62 0.0338756
r50 41 42 1.705
r51 40 62 0.0338756
r52 39 59 0.0517569
r53 39 40 1.0625
r54 37 56 0.0046983
r55 37 38 0.77
r56 32 38 0.0458784
r57 32 34 0.209231
r58 31 54 0.0046983
r59 30 52 0.0517569
r60 30 31 0.11
r61 29 52 0.0517569
r62 28 29 0.9075
r63 27 48 0.0517569
r64 26 62 0.00880368
r65 26 27 0.35
r66 25 44 0.0234599
r67 24 42 0.0446983
r68 24 25 0.6525
r69 22 28 0.0446983
r70 22 23 0.625
r71 21 23 0.0446983
r72 20 44 0.0517569
r73 20 21 1.5675
r74 19 59 15.61
r75 19 52 11.07
r76 19 48 11.07
r77 19 44 11.07
r78 19 34 3.8825
r79 18 19 0.921778
r80 16 19 1.89833
r81 14 19 8.27089
r82 14 15 109.615
r83 10 15 5.58729
r84 10 12 201.923
r85 8 19 8.27089
r86 8 9 86.1538
r87 4 9 5.58729
r88 4 6 174.615
.ends

.subckt PM_BITSLICE_X1_X9_X2_7 6 8 12 14 16 18 19 21 22 24 26 29 34 38 40 42 44
c25 62 0 15.36f
c26 59 0 77.16f
c27 56 0 44.88f
c28 52 0 57.6f
c29 44 0 57.6f
c30 42 0 599.808f
c31 40 0 373.648f
c32 38 0 268.608f
c33 34 0 234.514f
c34 32 0 32.18f
c35 31 0 38.064f
c36 29 0 312.808f
c37 27 0 70.4f
c38 26 0 120.464f
c39 24 0 255.104f
c40 23 0 28.16f
c41 22 0 245.744f
c42 21 0 551.104f
c43 19 0 388f
c44 15 0 29.38f
c45 14 0 321.598f
c46 12 0 799.254f
c47 9 0 29.38f
c48 8 0 252.668f
c49 6 0 634.274f
r50 54 56 0.0475
r51 41 62 0.0338756
r52 41 42 1.705
r53 40 62 0.0338756
r54 39 59 0.0517569
r55 39 40 1.0625
r56 37 56 0.0046983
r57 37 38 0.77
r58 32 38 0.0458784
r59 32 34 0.209231
r60 31 54 0.0046983
r61 30 52 0.0517569
r62 30 31 0.11
r63 29 52 0.0517569
r64 28 29 0.9075
r65 27 48 0.0517569
r66 26 62 0.00880368
r67 26 27 0.35
r68 25 44 0.0234599
r69 24 42 0.0446983
r70 24 25 0.6525
r71 22 28 0.0446983
r72 22 23 0.625
r73 21 23 0.0446983
r74 20 44 0.0517569
r75 20 21 1.5675
r76 19 59 15.61
r77 19 52 11.07
r78 19 48 11.07
r79 19 44 11.07
r80 19 34 3.8825
r81 18 19 0.921778
r82 16 19 1.89833
r83 14 19 8.27089
r84 14 15 109.615
r85 10 15 5.58729
r86 10 12 201.923
r87 8 19 8.27089
r88 8 9 86.1538
r89 4 9 5.58729
r90 4 6 174.615
.ends

.subckt PM_BITSLICE_X1_X9_X3_7 6 8 12 14 15 16 18 19 21 22 24 26 29 34 38 40 42
+ 44
c33 62 0 15.36f
c34 59 0 77.16f
c35 56 0 44.88f
c36 52 0 57.6f
c37 44 0 57.6f
c38 42 0 599.808f
c39 40 0 373.648f
c40 38 0 268.608f
c41 34 0 234.514f
c42 32 0 32.18f
c43 31 0 38.064f
c44 29 0 312.808f
c45 27 0 70.4f
c46 26 0 120.464f
c47 24 0 255.104f
c48 23 0 28.16f
c49 22 0 245.744f
c50 21 0 551.104f
c51 19 0 388f
c52 15 0 29.38f
c53 14 0 321.598f
c54 12 0 799.254f
c55 9 0 29.38f
c56 8 0 252.668f
c57 6 0 634.274f
r58 54 56 0.0475
r59 41 62 0.0338756
r60 41 42 1.705
r61 40 62 0.0338756
r62 39 59 0.0517569
r63 39 40 1.0625
r64 37 56 0.0046983
r65 37 38 0.77
r66 32 38 0.0458784
r67 32 34 0.209231
r68 31 54 0.0046983
r69 30 52 0.0517569
r70 30 31 0.11
r71 29 52 0.0517569
r72 28 29 0.9075
r73 27 48 0.0517569
r74 26 62 0.00880368
r75 26 27 0.35
r76 25 44 0.0234599
r77 24 42 0.0446983
r78 24 25 0.6525
r79 22 28 0.0446983
r80 22 23 0.625
r81 21 23 0.0446983
r82 20 44 0.0517569
r83 20 21 1.5675
r84 19 59 15.61
r85 19 52 11.07
r86 19 48 11.07
r87 19 44 11.07
r88 19 34 3.8825
r89 18 19 0.921778
r90 16 19 1.89833
r91 14 19 8.27089
r92 14 15 109.615
r93 10 15 5.58729
r94 10 12 201.923
r95 8 19 8.27089
r96 8 9 86.1538
r97 4 9 5.58729
r98 4 6 174.615
.ends

.subckt PM_BITSLICE_X1_X9_X4_7 6 8 12 14 16 18 19 21 22 24 26 29 34 38 40 42 44
c26 62 0 15.36f
c27 59 0 77.16f
c28 56 0 44.88f
c29 52 0 57.6f
c30 44 0 57.6f
c31 42 0 599.808f
c32 40 0 373.648f
c33 38 0 268.608f
c34 34 0 234.514f
c35 32 0 32.18f
c36 31 0 38.064f
c37 29 0 312.808f
c38 27 0 70.4f
c39 26 0 120.464f
c40 24 0 255.104f
c41 23 0 28.16f
c42 22 0 245.744f
c43 21 0 551.104f
c44 19 0 388f
c45 15 0 29.38f
c46 14 0 321.598f
c47 12 0 799.254f
c48 9 0 29.38f
c49 8 0 252.668f
c50 6 0 634.274f
r51 54 56 0.0475
r52 41 62 0.0338756
r53 41 42 1.705
r54 40 62 0.0338756
r55 39 59 0.0517569
r56 39 40 1.0625
r57 37 56 0.0046983
r58 37 38 0.77
r59 32 38 0.0458784
r60 32 34 0.209231
r61 31 54 0.0046983
r62 30 52 0.0517569
r63 30 31 0.11
r64 29 52 0.0517569
r65 28 29 0.9075
r66 27 48 0.0517569
r67 26 62 0.00880368
r68 26 27 0.35
r69 25 44 0.0234599
r70 24 42 0.0446983
r71 24 25 0.6525
r72 22 28 0.0446983
r73 22 23 0.625
r74 21 23 0.0446983
r75 20 44 0.0517569
r76 20 21 1.5675
r77 19 59 15.61
r78 19 52 11.07
r79 19 48 11.07
r80 19 44 11.07
r81 19 34 3.8825
r82 18 19 0.921778
r83 16 19 1.89833
r84 14 19 8.27089
r85 14 15 109.615
r86 10 15 5.58729
r87 10 12 201.923
r88 8 19 8.27089
r89 8 9 86.1538
r90 4 9 5.58729
r91 4 6 174.615
.ends

.subckt PM_BITSLICE_X1_X9_X5_7 6 8 12 14 16 18 19 21 22 24 26 29 34 38 42 44
c23 62 0 15.36f
c24 59 0 77.16f
c25 56 0 44.88f
c26 52 0 57.6f
c27 44 0 57.6f
c28 42 0 599.808f
c29 40 0 373.648f
c30 38 0 268.608f
c31 34 0 234.514f
c32 32 0 32.18f
c33 31 0 38.064f
c34 29 0 312.808f
c35 27 0 70.4f
c36 26 0 120.464f
c37 24 0 255.104f
c38 23 0 28.16f
c39 22 0 245.744f
c40 21 0 551.104f
c41 19 0 388f
c42 15 0 29.38f
c43 14 0 321.598f
c44 12 0 799.254f
c45 9 0 29.38f
c46 8 0 252.668f
c47 6 0 634.274f
r48 54 56 0.0475
r49 41 62 0.0338756
r50 41 42 1.705
r51 40 62 0.0338756
r52 39 59 0.0517569
r53 39 40 1.0625
r54 37 56 0.0046983
r55 37 38 0.77
r56 32 38 0.0458784
r57 32 34 0.209231
r58 31 54 0.0046983
r59 30 52 0.0517569
r60 30 31 0.11
r61 29 52 0.0517569
r62 28 29 0.9075
r63 27 48 0.0517569
r64 26 62 0.00880368
r65 26 27 0.35
r66 25 44 0.0234599
r67 24 42 0.0446983
r68 24 25 0.6525
r69 22 28 0.0446983
r70 22 23 0.625
r71 21 23 0.0446983
r72 20 44 0.0517569
r73 20 21 1.5675
r74 19 59 15.61
r75 19 52 11.07
r76 19 48 11.07
r77 19 44 11.07
r78 19 34 3.8825
r79 18 19 0.921778
r80 16 19 1.89833
r81 14 19 8.27089
r82 14 15 109.615
r83 10 15 5.58729
r84 10 12 201.923
r85 8 19 8.27089
r86 8 9 86.1538
r87 4 9 5.58729
r88 4 6 174.615
.ends

.subckt PM_BITSLICE_X1_X9_X6_7 6 8 12 14 16 18 19 21 22 24 26 29 38 40 42 44 62
c27 62 0 15.36f
c28 59 0 77.16f
c29 56 0 44.88f
c30 52 0 57.6f
c31 44 0 57.6f
c32 42 0 599.808f
c33 40 0 373.648f
c34 38 0 268.608f
c35 34 0 234.514f
c36 32 0 32.18f
c37 31 0 38.064f
c38 29 0 312.808f
c39 27 0 70.4f
c40 26 0 120.464f
c41 24 0 255.104f
c42 23 0 28.16f
c43 22 0 245.744f
c44 21 0 551.104f
c45 19 0 388f
c46 15 0 29.38f
c47 14 0 321.598f
c48 12 0 799.254f
c49 9 0 29.38f
c50 8 0 252.668f
c51 6 0 634.274f
r52 54 56 0.0475
r53 41 62 0.0338756
r54 41 42 1.705
r55 40 62 0.0338756
r56 39 59 0.0517569
r57 39 40 1.0625
r58 37 56 0.0046983
r59 37 38 0.77
r60 32 38 0.0458784
r61 32 34 0.209231
r62 31 54 0.0046983
r63 30 52 0.0517569
r64 30 31 0.11
r65 29 52 0.0517569
r66 28 29 0.9075
r67 27 48 0.0517569
r68 26 62 0.00880368
r69 26 27 0.35
r70 25 44 0.0234599
r71 24 42 0.0446983
r72 24 25 0.6525
r73 22 28 0.0446983
r74 22 23 0.625
r75 21 23 0.0446983
r76 20 44 0.0517569
r77 20 21 1.5675
r78 19 59 15.61
r79 19 52 11.07
r80 19 48 11.07
r81 19 44 11.07
r82 19 34 3.8825
r83 18 19 0.921778
r84 16 19 1.89833
r85 14 19 8.27089
r86 14 15 109.615
r87 10 15 5.58729
r88 10 12 201.923
r89 8 19 8.27089
r90 8 9 86.1538
r91 4 9 5.58729
r92 4 6 174.615
.ends

.subckt PM_BITSLICE_X1_X0_X0_X20_7 6 8 12 14 16 18 22 24 26 29 38 42
c15 62 0 15.36f
c16 59 0 77.16f
c17 56 0 44.88f
c18 52 0 57.6f
c19 44 0 57.6f
c20 42 0 599.808f
c21 40 0 373.648f
c22 38 0 268.608f
c23 34 0 234.514f
c24 32 0 32.18f
c25 31 0 38.064f
c26 29 0 312.808f
c27 27 0 70.4f
c28 26 0 120.464f
c29 24 0 255.104f
c30 23 0 28.16f
c31 22 0 245.744f
c32 21 0 551.104f
c33 19 0 388f
c34 15 0 29.38f
c35 14 0 321.598f
c36 12 0 799.254f
c37 9 0 29.38f
c38 8 0 252.668f
c39 6 0 634.274f
r40 54 56 0.0475
r41 41 62 0.0338756
r42 41 42 1.705
r43 40 62 0.0338756
r44 39 59 0.0517569
r45 39 40 1.0625
r46 37 56 0.0046983
r47 37 38 0.77
r48 32 38 0.0458784
r49 32 34 0.209231
r50 31 54 0.0046983
r51 30 52 0.0517569
r52 30 31 0.11
r53 29 52 0.0517569
r54 28 29 0.9075
r55 27 48 0.0517569
r56 26 62 0.00880368
r57 26 27 0.35
r58 25 44 0.0234599
r59 24 42 0.0446983
r60 24 25 0.6525
r61 22 28 0.0446983
r62 22 23 0.625
r63 21 23 0.0446983
r64 20 44 0.0517569
r65 20 21 1.5675
r66 19 59 15.61
r67 19 52 11.07
r68 19 48 11.07
r69 19 44 11.07
r70 19 34 3.8825
r71 18 19 0.921778
r72 16 19 1.89833
r73 14 19 8.27089
r74 14 15 109.615
r75 10 15 5.58729
r76 10 12 201.923
r77 8 19 8.27089
r78 8 9 86.1538
r79 4 9 5.58729
r80 4 6 174.615
.ends

.subckt PM_BITSLICE_X1_X0_X1_X20_7 6 8 12 14 16 18 21 22 24 26 29 38 42
c16 62 0 15.36f
c17 59 0 77.16f
c18 56 0 44.88f
c19 52 0 57.6f
c20 44 0 57.6f
c21 42 0 599.808f
c22 40 0 373.648f
c23 38 0 268.608f
c24 34 0 234.514f
c25 32 0 32.18f
c26 31 0 38.064f
c27 29 0 312.808f
c28 27 0 70.4f
c29 26 0 120.464f
c30 24 0 255.104f
c31 23 0 28.16f
c32 22 0 245.744f
c33 21 0 551.104f
c34 19 0 388f
c35 15 0 29.38f
c36 14 0 321.598f
c37 12 0 799.254f
c38 9 0 29.38f
c39 8 0 252.668f
c40 6 0 634.274f
r41 54 56 0.0475
r42 41 62 0.0338756
r43 41 42 1.705
r44 40 62 0.0338756
r45 39 59 0.0517569
r46 39 40 1.0625
r47 37 56 0.0046983
r48 37 38 0.77
r49 32 38 0.0458784
r50 32 34 0.209231
r51 31 54 0.0046983
r52 30 52 0.0517569
r53 30 31 0.11
r54 29 52 0.0517569
r55 28 29 0.9075
r56 27 48 0.0517569
r57 26 62 0.00880368
r58 26 27 0.35
r59 25 44 0.0234599
r60 24 42 0.0446983
r61 24 25 0.6525
r62 22 28 0.0446983
r63 22 23 0.625
r64 21 23 0.0446983
r65 20 44 0.0517569
r66 20 21 1.5675
r67 19 59 15.61
r68 19 52 11.07
r69 19 48 11.07
r70 19 44 11.07
r71 19 34 3.8825
r72 18 19 0.921778
r73 16 19 1.89833
r74 14 19 8.27089
r75 14 15 109.615
r76 10 15 5.58729
r77 10 12 201.923
r78 8 19 8.27089
r79 8 9 86.1538
r80 4 9 5.58729
r81 4 6 174.615
.ends

.subckt PM_BITSLICE_X1_X1_X0_X20_7 6 8 12 14 16 18 21 22 23 24 26 29 38 42
c20 62 0 15.36f
c21 59 0 77.16f
c22 56 0 44.88f
c23 52 0 57.6f
c24 44 0 57.6f
c25 42 0 599.808f
c26 40 0 373.648f
c27 38 0 268.608f
c28 34 0 234.514f
c29 32 0 32.18f
c30 31 0 38.064f
c31 29 0 312.808f
c32 27 0 70.4f
c33 26 0 120.464f
c34 24 0 255.104f
c35 23 0 28.16f
c36 22 0 245.744f
c37 21 0 551.104f
c38 19 0 388f
c39 15 0 29.38f
c40 14 0 321.598f
c41 12 0 799.254f
c42 9 0 29.38f
c43 8 0 252.668f
c44 6 0 634.274f
r45 54 56 0.0475
r46 41 62 0.0338756
r47 41 42 1.705
r48 40 62 0.0338756
r49 39 59 0.0517569
r50 39 40 1.0625
r51 37 56 0.0046983
r52 37 38 0.77
r53 32 38 0.0458784
r54 32 34 0.209231
r55 31 54 0.0046983
r56 30 52 0.0517569
r57 30 31 0.11
r58 29 52 0.0517569
r59 28 29 0.9075
r60 27 48 0.0517569
r61 26 62 0.00880368
r62 26 27 0.35
r63 25 44 0.0234599
r64 24 42 0.0446983
r65 24 25 0.6525
r66 22 28 0.0446983
r67 22 23 0.625
r68 21 23 0.0446983
r69 20 44 0.0517569
r70 20 21 1.5675
r71 19 59 15.61
r72 19 52 11.07
r73 19 48 11.07
r74 19 44 11.07
r75 19 34 3.8825
r76 18 19 0.921778
r77 16 19 1.89833
r78 14 19 8.27089
r79 14 15 109.615
r80 10 15 5.58729
r81 10 12 201.923
r82 8 19 8.27089
r83 8 9 86.1538
r84 4 9 5.58729
r85 4 6 174.615
.ends

.subckt PM_BITSLICE_X1_X1_X1_X20_7 6 8 12 14 16 18 21 22 23 24 26 29 38 42
c20 62 0 15.36f
c21 59 0 77.16f
c22 56 0 44.88f
c23 52 0 57.6f
c24 44 0 57.6f
c25 42 0 599.808f
c26 40 0 373.648f
c27 38 0 268.608f
c28 34 0 234.514f
c29 32 0 32.18f
c30 31 0 38.064f
c31 29 0 312.808f
c32 27 0 70.4f
c33 26 0 120.464f
c34 24 0 255.104f
c35 23 0 28.16f
c36 22 0 245.744f
c37 21 0 551.104f
c38 19 0 388f
c39 15 0 29.38f
c40 14 0 321.598f
c41 12 0 799.254f
c42 9 0 29.38f
c43 8 0 252.668f
c44 6 0 634.274f
r45 54 56 0.0475
r46 41 62 0.0338756
r47 41 42 1.705
r48 40 62 0.0338756
r49 39 59 0.0517569
r50 39 40 1.0625
r51 37 56 0.0046983
r52 37 38 0.77
r53 32 38 0.0458784
r54 32 34 0.209231
r55 31 54 0.0046983
r56 30 52 0.0517569
r57 30 31 0.11
r58 29 52 0.0517569
r59 28 29 0.9075
r60 27 48 0.0517569
r61 26 62 0.00880368
r62 26 27 0.35
r63 25 44 0.0234599
r64 24 42 0.0446983
r65 24 25 0.6525
r66 22 28 0.0446983
r67 22 23 0.625
r68 21 23 0.0446983
r69 20 44 0.0517569
r70 20 21 1.5675
r71 19 59 15.61
r72 19 52 11.07
r73 19 48 11.07
r74 19 44 11.07
r75 19 34 3.8825
r76 18 19 0.921778
r77 16 19 1.89833
r78 14 19 8.27089
r79 14 15 109.615
r80 10 15 5.58729
r81 10 12 201.923
r82 8 19 8.27089
r83 8 9 86.1538
r84 4 9 5.58729
r85 4 6 174.615
.ends

.subckt PM_BITSLICE_X1_X2_X0_X20_7 6 8 12 14 16 18 21 22 23 24 26 29 38 42
c18 62 0 15.36f
c19 59 0 77.16f
c20 56 0 44.88f
c21 52 0 57.6f
c22 44 0 57.6f
c23 42 0 599.808f
c24 40 0 373.648f
c25 38 0 268.608f
c26 34 0 234.514f
c27 32 0 32.18f
c28 31 0 38.064f
c29 29 0 312.808f
c30 27 0 70.4f
c31 26 0 120.464f
c32 24 0 255.104f
c33 23 0 28.16f
c34 22 0 245.744f
c35 21 0 551.104f
c36 19 0 388f
c37 15 0 29.38f
c38 14 0 321.598f
c39 12 0 799.254f
c40 9 0 29.38f
c41 8 0 252.668f
c42 6 0 634.274f
r43 54 56 0.0475
r44 41 62 0.0338756
r45 41 42 1.705
r46 40 62 0.0338756
r47 39 59 0.0517569
r48 39 40 1.0625
r49 37 56 0.0046983
r50 37 38 0.77
r51 32 38 0.0458784
r52 32 34 0.209231
r53 31 54 0.0046983
r54 30 52 0.0517569
r55 30 31 0.11
r56 29 52 0.0517569
r57 28 29 0.9075
r58 27 48 0.0517569
r59 26 62 0.00880368
r60 26 27 0.35
r61 25 44 0.0234599
r62 24 42 0.0446983
r63 24 25 0.6525
r64 22 28 0.0446983
r65 22 23 0.625
r66 21 23 0.0446983
r67 20 44 0.0517569
r68 20 21 1.5675
r69 19 59 15.61
r70 19 52 11.07
r71 19 48 11.07
r72 19 44 11.07
r73 19 34 3.8825
r74 18 19 0.921778
r75 16 19 1.89833
r76 14 19 8.27089
r77 14 15 109.615
r78 10 15 5.58729
r79 10 12 201.923
r80 8 19 8.27089
r81 8 9 86.1538
r82 4 9 5.58729
r83 4 6 174.615
.ends

.subckt PM_BITSLICE_X1_X2_X1_X20_7 6 8 12 14 16 18 21 22 23 24 26 29 38 42
c20 62 0 15.36f
c21 59 0 77.16f
c22 56 0 44.88f
c23 52 0 57.6f
c24 44 0 57.6f
c25 42 0 599.808f
c26 40 0 373.648f
c27 38 0 268.608f
c28 34 0 234.514f
c29 32 0 32.18f
c30 31 0 38.064f
c31 29 0 312.808f
c32 27 0 70.4f
c33 26 0 120.464f
c34 24 0 255.104f
c35 23 0 28.16f
c36 22 0 245.744f
c37 21 0 551.104f
c38 19 0 388f
c39 15 0 29.38f
c40 14 0 321.598f
c41 12 0 799.254f
c42 9 0 29.38f
c43 8 0 252.668f
c44 6 0 634.274f
r45 54 56 0.0475
r46 41 62 0.0338756
r47 41 42 1.705
r48 40 62 0.0338756
r49 39 59 0.0517569
r50 39 40 1.0625
r51 37 56 0.0046983
r52 37 38 0.77
r53 32 38 0.0458784
r54 32 34 0.209231
r55 31 54 0.0046983
r56 30 52 0.0517569
r57 30 31 0.11
r58 29 52 0.0517569
r59 28 29 0.9075
r60 27 48 0.0517569
r61 26 62 0.00880368
r62 26 27 0.35
r63 25 44 0.0234599
r64 24 42 0.0446983
r65 24 25 0.6525
r66 22 28 0.0446983
r67 22 23 0.625
r68 21 23 0.0446983
r69 20 44 0.0517569
r70 20 21 1.5675
r71 19 59 15.61
r72 19 52 11.07
r73 19 48 11.07
r74 19 44 11.07
r75 19 34 3.8825
r76 18 19 0.921778
r77 16 19 1.89833
r78 14 19 8.27089
r79 14 15 109.615
r80 10 15 5.58729
r81 10 12 201.923
r82 8 19 8.27089
r83 8 9 86.1538
r84 4 9 5.58729
r85 4 6 174.615
.ends

.subckt PM_BITSLICE_X1_X3_X0_X20_7 6 8 12 14 16 18 21 22 24 26 29 38 42
c16 62 0 15.36f
c17 59 0 77.16f
c18 56 0 44.88f
c19 52 0 57.6f
c20 44 0 57.6f
c21 42 0 599.808f
c22 40 0 373.648f
c23 38 0 268.608f
c24 34 0 234.514f
c25 32 0 32.18f
c26 31 0 38.064f
c27 29 0 312.808f
c28 27 0 70.4f
c29 26 0 120.464f
c30 24 0 255.104f
c31 23 0 28.16f
c32 22 0 245.744f
c33 21 0 551.104f
c34 19 0 388f
c35 15 0 29.38f
c36 14 0 321.598f
c37 12 0 799.254f
c38 9 0 29.38f
c39 8 0 252.668f
c40 6 0 634.274f
r41 54 56 0.0475
r42 41 62 0.0338756
r43 41 42 1.705
r44 40 62 0.0338756
r45 39 59 0.0517569
r46 39 40 1.0625
r47 37 56 0.0046983
r48 37 38 0.77
r49 32 38 0.0458784
r50 32 34 0.209231
r51 31 54 0.0046983
r52 30 52 0.0517569
r53 30 31 0.11
r54 29 52 0.0517569
r55 28 29 0.9075
r56 27 48 0.0517569
r57 26 62 0.00880368
r58 26 27 0.35
r59 25 44 0.0234599
r60 24 42 0.0446983
r61 24 25 0.6525
r62 22 28 0.0446983
r63 22 23 0.625
r64 21 23 0.0446983
r65 20 44 0.0517569
r66 20 21 1.5675
r67 19 59 15.61
r68 19 52 11.07
r69 19 48 11.07
r70 19 44 11.07
r71 19 34 3.8825
r72 18 19 0.921778
r73 16 19 1.89833
r74 14 19 8.27089
r75 14 15 109.615
r76 10 15 5.58729
r77 10 12 201.923
r78 8 19 8.27089
r79 8 9 86.1538
r80 4 9 5.58729
r81 4 6 174.615
.ends

.subckt PM_BITSLICE_X1_X3_X1_X20_7 6 8 12 14 16 18 21 22 24 26 29 38 42
c15 62 0 15.36f
c16 59 0 77.16f
c17 56 0 44.88f
c18 52 0 57.6f
c19 44 0 57.6f
c20 42 0 599.808f
c21 40 0 373.648f
c22 38 0 268.608f
c23 34 0 234.514f
c24 32 0 32.18f
c25 31 0 38.064f
c26 29 0 312.808f
c27 27 0 70.4f
c28 26 0 120.464f
c29 24 0 255.104f
c30 23 0 28.16f
c31 22 0 245.744f
c32 21 0 551.104f
c33 19 0 388f
c34 15 0 29.38f
c35 14 0 321.598f
c36 12 0 799.254f
c37 9 0 29.38f
c38 8 0 252.668f
c39 6 0 634.274f
r40 54 56 0.0475
r41 41 62 0.0338756
r42 41 42 1.705
r43 40 62 0.0338756
r44 39 59 0.0517569
r45 39 40 1.0625
r46 37 56 0.0046983
r47 37 38 0.77
r48 32 38 0.0458784
r49 32 34 0.209231
r50 31 54 0.0046983
r51 30 52 0.0517569
r52 30 31 0.11
r53 29 52 0.0517569
r54 28 29 0.9075
r55 27 48 0.0517569
r56 26 62 0.00880368
r57 26 27 0.35
r58 25 44 0.0234599
r59 24 42 0.0446983
r60 24 25 0.6525
r61 22 28 0.0446983
r62 22 23 0.625
r63 21 23 0.0446983
r64 20 44 0.0517569
r65 20 21 1.5675
r66 19 59 15.61
r67 19 52 11.07
r68 19 48 11.07
r69 19 44 11.07
r70 19 34 3.8825
r71 18 19 0.921778
r72 16 19 1.89833
r73 14 19 8.27089
r74 14 15 109.615
r75 10 15 5.58729
r76 10 12 201.923
r77 8 19 8.27089
r78 8 9 86.1538
r79 4 9 5.58729
r80 4 6 174.615
.ends

.subckt PM_BITSLICE_X0_X36_7 6 8 12 14 16 18 19 21 22 23 24 26 29 38 42 44
c30 62 0 15.36f
c31 59 0 77.16f
c32 56 0 44.88f
c33 52 0 57.6f
c34 44 0 57.6f
c35 42 0 599.808f
c36 40 0 373.648f
c37 38 0 268.608f
c38 34 0 234.514f
c39 32 0 32.18f
c40 31 0 38.064f
c41 29 0 312.808f
c42 27 0 70.4f
c43 26 0 120.464f
c44 24 0 255.104f
c45 23 0 28.16f
c46 22 0 245.744f
c47 21 0 551.104f
c48 19 0 388f
c49 15 0 29.38f
c50 14 0 321.598f
c51 12 0 799.254f
c52 9 0 29.38f
c53 8 0 252.668f
c54 6 0 634.274f
r55 54 56 0.0475
r56 41 62 0.0338756
r57 41 42 1.705
r58 40 62 0.0338756
r59 39 59 0.0517569
r60 39 40 1.0625
r61 37 56 0.0046983
r62 37 38 0.77
r63 32 38 0.0458784
r64 32 34 0.209231
r65 31 54 0.0046983
r66 30 52 0.0517569
r67 30 31 0.11
r68 29 52 0.0517569
r69 28 29 0.9075
r70 27 48 0.0517569
r71 26 62 0.00880368
r72 26 27 0.35
r73 25 44 0.0234599
r74 24 42 0.0446983
r75 24 25 0.6525
r76 22 28 0.0446983
r77 22 23 0.625
r78 21 23 0.0446983
r79 20 44 0.0517569
r80 20 21 1.5675
r81 19 59 15.61
r82 19 52 11.07
r83 19 48 11.07
r84 19 44 11.07
r85 19 34 3.8825
r86 18 19 0.921778
r87 16 19 1.89833
r88 14 19 8.27089
r89 14 15 109.615
r90 10 15 5.58729
r91 10 12 201.923
r92 8 19 8.27089
r93 8 9 86.1538
r94 4 9 5.58729
r95 4 6 174.615
.ends

.subckt PM_BITSLICE_X0_X37_7 6 8 12 14 15 16 18 19 21 22 24 26 27 29 31 38 40 42
+ 52
c26 62 0 15.36f
c27 59 0 77.16f
c28 56 0 44.88f
c29 52 0 57.6f
c30 44 0 57.6f
c31 42 0 599.808f
c32 40 0 373.648f
c33 38 0 268.608f
c34 34 0 234.514f
c35 32 0 32.18f
c36 31 0 38.064f
c37 29 0 312.808f
c38 27 0 70.4f
c39 26 0 120.464f
c40 24 0 255.104f
c41 23 0 28.16f
c42 22 0 245.744f
c43 21 0 551.104f
c44 19 0 388f
c45 15 0 29.38f
c46 14 0 321.598f
c47 12 0 799.254f
c48 9 0 29.38f
c49 8 0 252.668f
c50 6 0 634.274f
r51 54 56 0.0475
r52 41 62 0.0338756
r53 41 42 1.705
r54 40 62 0.0338756
r55 39 59 0.0517569
r56 39 40 1.0625
r57 37 56 0.0046983
r58 37 38 0.77
r59 32 38 0.0458784
r60 32 34 0.209231
r61 31 54 0.0046983
r62 30 52 0.0517569
r63 30 31 0.11
r64 29 52 0.0517569
r65 28 29 0.9075
r66 27 48 0.0517569
r67 26 62 0.00880368
r68 26 27 0.35
r69 25 44 0.0234599
r70 24 42 0.0446983
r71 24 25 0.6525
r72 22 28 0.0446983
r73 22 23 0.625
r74 21 23 0.0446983
r75 20 44 0.0517569
r76 20 21 1.5675
r77 19 59 15.61
r78 19 52 11.07
r79 19 48 11.07
r80 19 44 11.07
r81 19 34 3.8825
r82 18 19 0.921778
r83 16 19 1.89833
r84 14 19 8.27089
r85 14 15 109.615
r86 10 15 5.58729
r87 10 12 201.923
r88 8 19 8.27089
r89 8 9 86.1538
r90 4 9 5.58729
r91 4 6 174.615
.ends
