* File: control.pex.netlist.pex
* Created: Thu Apr 18 12:54:00 2019
* Program "Calibre xRC"
* Version "v2012.2_36.25"
* Nominal Temperature: 27C
* Circuit Temperature: 27C
* 
.subckt PM_CONTROL_X0_X0_6 6 10 28 30
r0 78 121 0.017931
r1 69 70 0.146
r2 67 68 0.534
r3 61 63 0.0525
r4 56 66 0.0517569
r5 56 58 0.209231
r6 54 65 0.101866
r7 54 66 0.28
r8 52 121 0.0276608
r9 52 53 0.105
r10 50 51 0.2975
r11 48 65 0.0174182
r12 48 49 0.1175
r13 43 50 0.0458784
r14 43 45 0.104615
r15 42 63 0.0046983
r16 41 53 0.0446983
r17 41 42 0.635
r18 40 49 0.0446983
r19 39 61 0.0046983
r20 39 40 0.2875
r21 37 51 0.0446983
r22 37 38 0.18
r23 36 73 0.0559551
r24 35 38 0.0446983
r25 35 36 0.11
r26 34 88 11.07
r27 34 67 0.0477743
r28 34 88 0.68
r29 33 83 11.07
r30 33 69 0.0477743
r31 33 83 0.68
r32 32 70 0.0477743
r33 32 78 0.68
r34 32 58 3.8825
r35 31 68 0.0477743
r36 31 73 0.68
r37 31 45 5.20333
r38 30 32 1.03022
r39 28 31 1.06083
r40 24 26 7.30769
r41 20 22 18.8462
r42 18 19 634.615
r43 17 34 4.63979
r44 16 18 5.58729
r45 16 17 13.8462
r46 15 26 0.587288
r47 14 22 0.587288
r48 14 15 76.9231
r49 13 33 4.63979
r50 12 19 5.58729
r51 12 13 23.0769
r52 8 24 0.587288
r53 8 10 161.923
r54 4 34 8.27089
r55 4 6 87.6923
r56 3 20 0.587288
r57 2 33 8.27089
r58 2 3 13.8462
.ends

.subckt PM_CONTROL_X0_X1_6 6 10 28 30
r0 78 121 0.017931
r1 69 70 0.146
r2 67 68 0.534
r3 61 63 0.0525
r4 56 66 0.0517569
r5 56 58 0.209231
r6 54 65 0.101866
r7 54 66 0.28
r8 52 121 0.0276608
r9 52 53 0.105
r10 50 51 0.2975
r11 48 65 0.0174182
r12 48 49 0.1175
r13 43 50 0.0458784
r14 43 45 0.104615
r15 42 63 0.0046983
r16 41 53 0.0446983
r17 41 42 0.635
r18 40 49 0.0446983
r19 39 61 0.0046983
r20 39 40 0.2875
r21 37 51 0.0446983
r22 37 38 0.18
r23 36 73 0.0559551
r24 35 38 0.0446983
r25 35 36 0.11
r26 34 88 11.07
r27 34 67 0.0477743
r28 34 88 0.68
r29 33 83 11.07
r30 33 69 0.0477743
r31 33 83 0.68
r32 32 70 0.0477743
r33 32 78 0.68
r34 32 58 3.8825
r35 31 68 0.0477743
r36 31 73 0.68
r37 31 45 5.20333
r38 30 32 1.03022
r39 28 31 1.06083
r40 24 26 7.30769
r41 20 22 18.8462
r42 18 19 634.615
r43 17 34 4.63979
r44 16 18 5.58729
r45 16 17 13.8462
r46 15 26 0.587288
r47 14 22 0.587288
r48 14 15 76.9231
r49 13 33 4.63979
r50 12 19 5.58729
r51 12 13 23.0769
r52 8 24 0.587288
r53 8 10 161.923
r54 4 34 8.27089
r55 4 6 87.6923
r56 3 20 0.587288
r57 2 33 8.27089
r58 2 3 13.8462
.ends

.subckt PM_CONTROL_X1_X0_6 6 10 28 30
r0 78 121 0.017931
r1 69 70 0.146
r2 67 68 0.534
r3 61 63 0.0525
r4 56 66 0.0517569
r5 56 58 0.209231
r6 54 65 0.101866
r7 54 66 0.28
r8 52 121 0.0276608
r9 52 53 0.105
r10 50 51 0.2975
r11 48 65 0.0174182
r12 48 49 0.1175
r13 43 50 0.0458784
r14 43 45 0.104615
r15 42 63 0.0046983
r16 41 53 0.0446983
r17 41 42 0.635
r18 40 49 0.0446983
r19 39 61 0.0046983
r20 39 40 0.2875
r21 37 51 0.0446983
r22 37 38 0.18
r23 36 73 0.0559551
r24 35 38 0.0446983
r25 35 36 0.11
r26 34 88 11.07
r27 34 67 0.0477743
r28 34 88 0.68
r29 33 83 11.07
r30 33 69 0.0477743
r31 33 83 0.68
r32 32 70 0.0477743
r33 32 78 0.68
r34 32 58 3.8825
r35 31 68 0.0477743
r36 31 73 0.68
r37 31 45 5.20333
r38 30 32 1.03022
r39 28 31 1.06083
r40 24 26 7.30769
r41 20 22 18.8462
r42 18 19 634.615
r43 17 34 4.63979
r44 16 18 5.58729
r45 16 17 13.8462
r46 15 26 0.587288
r47 14 22 0.587288
r48 14 15 76.9231
r49 13 33 4.63979
r50 12 19 5.58729
r51 12 13 23.0769
r52 8 24 0.587288
r53 8 10 161.923
r54 4 34 8.27089
r55 4 6 87.6923
r56 3 20 0.587288
r57 2 33 8.27089
r58 2 3 13.8462
.ends

.subckt PM_CONTROL_X1_X1_6 6 10 28 30
r0 78 121 0.017931
r1 69 70 0.146
r2 67 68 0.534
r3 61 63 0.0525
r4 56 66 0.0517569
r5 56 58 0.209231
r6 54 65 0.101866
r7 54 66 0.28
r8 52 121 0.0276608
r9 52 53 0.105
r10 50 51 0.2975
r11 48 65 0.0174182
r12 48 49 0.1175
r13 43 50 0.0458784
r14 43 45 0.104615
r15 42 63 0.0046983
r16 41 53 0.0446983
r17 41 42 0.635
r18 40 49 0.0446983
r19 39 61 0.0046983
r20 39 40 0.2875
r21 37 51 0.0446983
r22 37 38 0.18
r23 36 73 0.0559551
r24 35 38 0.0446983
r25 35 36 0.11
r26 34 88 11.07
r27 34 67 0.0477743
r28 34 88 0.68
r29 33 83 11.07
r30 33 69 0.0477743
r31 33 83 0.68
r32 32 70 0.0477743
r33 32 78 0.68
r34 32 58 3.8825
r35 31 68 0.0477743
r36 31 73 0.68
r37 31 45 5.20333
r38 30 32 1.03022
r39 28 31 1.06083
r40 24 26 7.30769
r41 20 22 18.8462
r42 18 19 634.615
r43 17 34 4.63979
r44 16 18 5.58729
r45 16 17 13.8462
r46 15 26 0.587288
r47 14 22 0.587288
r48 14 15 76.9231
r49 13 33 4.63979
r50 12 19 5.58729
r51 12 13 23.0769
r52 8 24 0.587288
r53 8 10 161.923
r54 4 34 8.27089
r55 4 6 87.6923
r56 3 20 0.587288
r57 2 33 8.27089
r58 2 3 13.8462
.ends

.subckt PM_CONTROL_X2_X0_6 6 10 28 30
r0 78 121 0.017931
r1 69 70 0.146
r2 67 68 0.534
r3 61 63 0.0525
r4 56 66 0.0517569
r5 56 58 0.209231
r6 54 65 0.101866
r7 54 66 0.28
r8 52 121 0.0276608
r9 52 53 0.105
r10 50 51 0.2975
r11 48 65 0.0174182
r12 48 49 0.1175
r13 43 50 0.0458784
r14 43 45 0.104615
r15 42 63 0.0046983
r16 41 53 0.0446983
r17 41 42 0.635
r18 40 49 0.0446983
r19 39 61 0.0046983
r20 39 40 0.2875
r21 37 51 0.0446983
r22 37 38 0.18
r23 36 73 0.0559551
r24 35 38 0.0446983
r25 35 36 0.11
r26 34 88 11.07
r27 34 67 0.0477743
r28 34 88 0.68
r29 33 83 11.07
r30 33 69 0.0477743
r31 33 83 0.68
r32 32 70 0.0477743
r33 32 78 0.68
r34 32 58 3.8825
r35 31 68 0.0477743
r36 31 73 0.68
r37 31 45 5.20333
r38 30 32 1.03022
r39 28 31 1.06083
r40 24 26 7.30769
r41 20 22 18.8462
r42 18 19 634.615
r43 17 34 4.63979
r44 16 18 5.58729
r45 16 17 13.8462
r46 15 26 0.587288
r47 14 22 0.587288
r48 14 15 76.9231
r49 13 33 4.63979
r50 12 19 5.58729
r51 12 13 23.0769
r52 8 24 0.587288
r53 8 10 161.923
r54 4 34 8.27089
r55 4 6 87.6923
r56 3 20 0.587288
r57 2 33 8.27089
r58 2 3 13.8462
.ends

.subckt PM_CONTROL_X2_X1_6 6 10 28 30
r0 78 121 0.017931
r1 69 70 0.146
r2 67 68 0.534
r3 61 63 0.0525
r4 56 66 0.0517569
r5 56 58 0.209231
r6 54 65 0.101866
r7 54 66 0.28
r8 52 121 0.0276608
r9 52 53 0.105
r10 50 51 0.2975
r11 48 65 0.0174182
r12 48 49 0.1175
r13 43 50 0.0458784
r14 43 45 0.104615
r15 42 63 0.0046983
r16 41 53 0.0446983
r17 41 42 0.635
r18 40 49 0.0446983
r19 39 61 0.0046983
r20 39 40 0.2875
r21 37 51 0.0446983
r22 37 38 0.18
r23 36 73 0.0559551
r24 35 38 0.0446983
r25 35 36 0.11
r26 34 88 11.07
r27 34 67 0.0477743
r28 34 88 0.68
r29 33 83 11.07
r30 33 69 0.0477743
r31 33 83 0.68
r32 32 70 0.0477743
r33 32 78 0.68
r34 32 58 3.8825
r35 31 68 0.0477743
r36 31 73 0.68
r37 31 45 5.20333
r38 30 32 1.03022
r39 28 31 1.06083
r40 24 26 7.30769
r41 20 22 18.8462
r42 18 19 634.615
r43 17 34 4.63979
r44 16 18 5.58729
r45 16 17 13.8462
r46 15 26 0.587288
r47 14 22 0.587288
r48 14 15 76.9231
r49 13 33 4.63979
r50 12 19 5.58729
r51 12 13 23.0769
r52 8 24 0.587288
r53 8 10 161.923
r54 4 34 8.27089
r55 4 6 87.6923
r56 3 20 0.587288
r57 2 33 8.27089
r58 2 3 13.8462
.ends

.subckt PM_CONTROL_X3_X0_6 6 10 28 30
r0 78 121 0.017931
r1 69 70 0.146
r2 67 68 0.534
r3 61 63 0.0525
r4 56 66 0.0517569
r5 56 58 0.209231
r6 54 65 0.101866
r7 54 66 0.28
r8 52 121 0.0276608
r9 52 53 0.105
r10 50 51 0.2975
r11 48 65 0.0174182
r12 48 49 0.1175
r13 43 50 0.0458784
r14 43 45 0.104615
r15 42 63 0.0046983
r16 41 53 0.0446983
r17 41 42 0.635
r18 40 49 0.0446983
r19 39 61 0.0046983
r20 39 40 0.2875
r21 37 51 0.0446983
r22 37 38 0.18
r23 36 73 0.0559551
r24 35 38 0.0446983
r25 35 36 0.11
r26 34 88 11.07
r27 34 67 0.0477743
r28 34 88 0.68
r29 33 83 11.07
r30 33 69 0.0477743
r31 33 83 0.68
r32 32 70 0.0477743
r33 32 78 0.68
r34 32 58 3.8825
r35 31 68 0.0477743
r36 31 73 0.68
r37 31 45 5.20333
r38 30 32 1.03022
r39 28 31 1.06083
r40 24 26 7.30769
r41 20 22 18.8462
r42 18 19 634.615
r43 17 34 4.63979
r44 16 18 5.58729
r45 16 17 13.8462
r46 15 26 0.587288
r47 14 22 0.587288
r48 14 15 76.9231
r49 13 33 4.63979
r50 12 19 5.58729
r51 12 13 23.0769
r52 8 24 0.587288
r53 8 10 161.923
r54 4 34 8.27089
r55 4 6 87.6923
r56 3 20 0.587288
r57 2 33 8.27089
r58 2 3 13.8462
.ends

.subckt PM_CONTROL_X3_X1_6 6 10 28 30
r0 78 121 0.017931
r1 69 70 0.146
r2 67 68 0.534
r3 61 63 0.0525
r4 56 66 0.0517569
r5 56 58 0.209231
r6 54 65 0.101866
r7 54 66 0.28
r8 52 121 0.0276608
r9 52 53 0.105
r10 50 51 0.2975
r11 48 65 0.0174182
r12 48 49 0.1175
r13 43 50 0.0458784
r14 43 45 0.104615
r15 42 63 0.0046983
r16 41 53 0.0446983
r17 41 42 0.635
r18 40 49 0.0446983
r19 39 61 0.0046983
r20 39 40 0.2875
r21 37 51 0.0446983
r22 37 38 0.18
r23 36 73 0.0559551
r24 35 38 0.0446983
r25 35 36 0.11
r26 34 88 11.07
r27 34 67 0.0477743
r28 34 88 0.68
r29 33 83 11.07
r30 33 69 0.0477743
r31 33 83 0.68
r32 32 70 0.0477743
r33 32 78 0.68
r34 32 58 3.8825
r35 31 68 0.0477743
r36 31 73 0.68
r37 31 45 5.20333
r38 30 32 1.03022
r39 28 31 1.06083
r40 24 26 7.30769
r41 20 22 18.8462
r42 18 19 634.615
r43 17 34 4.63979
r44 16 18 5.58729
r45 16 17 13.8462
r46 15 26 0.587288
r47 14 22 0.587288
r48 14 15 76.9231
r49 13 33 4.63979
r50 12 19 5.58729
r51 12 13 23.0769
r52 8 24 0.587288
r53 8 10 161.923
r54 4 34 8.27089
r55 4 6 87.6923
r56 3 20 0.587288
r57 2 33 8.27089
r58 2 3 13.8462
.ends

.subckt PM_CONTROL_X4_X0_6 6 10 28 30
r0 78 121 0.017931
r1 69 70 0.146
r2 67 68 0.534
r3 61 63 0.0525
r4 56 66 0.0517569
r5 56 58 0.209231
r6 54 65 0.101866
r7 54 66 0.28
r8 52 121 0.0276608
r9 52 53 0.105
r10 50 51 0.2975
r11 48 65 0.0174182
r12 48 49 0.1175
r13 43 50 0.0458784
r14 43 45 0.104615
r15 42 63 0.0046983
r16 41 53 0.0446983
r17 41 42 0.635
r18 40 49 0.0446983
r19 39 61 0.0046983
r20 39 40 0.2875
r21 37 51 0.0446983
r22 37 38 0.18
r23 36 73 0.0559551
r24 35 38 0.0446983
r25 35 36 0.11
r26 34 88 11.07
r27 34 67 0.0477743
r28 34 88 0.68
r29 33 83 11.07
r30 33 69 0.0477743
r31 33 83 0.68
r32 32 70 0.0477743
r33 32 78 0.68
r34 32 58 3.8825
r35 31 68 0.0477743
r36 31 73 0.68
r37 31 45 5.20333
r38 30 32 1.03022
r39 28 31 1.06083
r40 24 26 7.30769
r41 20 22 18.8462
r42 18 19 634.615
r43 17 34 4.63979
r44 16 18 5.58729
r45 16 17 13.8462
r46 15 26 0.587288
r47 14 22 0.587288
r48 14 15 76.9231
r49 13 33 4.63979
r50 12 19 5.58729
r51 12 13 23.0769
r52 8 24 0.587288
r53 8 10 161.923
r54 4 34 8.27089
r55 4 6 87.6923
r56 3 20 0.587288
r57 2 33 8.27089
r58 2 3 13.8462
.ends

.subckt PM_CONTROL_X4_X1_6 6 10 28 30
r0 78 121 0.017931
r1 69 70 0.146
r2 67 68 0.534
r3 61 63 0.0525
r4 56 66 0.0517569
r5 56 58 0.209231
r6 54 65 0.101866
r7 54 66 0.28
r8 52 121 0.0276608
r9 52 53 0.105
r10 50 51 0.2975
r11 48 65 0.0174182
r12 48 49 0.1175
r13 43 50 0.0458784
r14 43 45 0.104615
r15 42 63 0.0046983
r16 41 53 0.0446983
r17 41 42 0.635
r18 40 49 0.0446983
r19 39 61 0.0046983
r20 39 40 0.2875
r21 37 51 0.0446983
r22 37 38 0.18
r23 36 73 0.0559551
r24 35 38 0.0446983
r25 35 36 0.11
r26 34 88 11.07
r27 34 67 0.0477743
r28 34 88 0.68
r29 33 83 11.07
r30 33 69 0.0477743
r31 33 83 0.68
r32 32 70 0.0477743
r33 32 78 0.68
r34 32 58 3.8825
r35 31 68 0.0477743
r36 31 73 0.68
r37 31 45 5.20333
r38 30 32 1.03022
r39 28 31 1.06083
r40 24 26 7.30769
r41 20 22 18.8462
r42 18 19 634.615
r43 17 34 4.63979
r44 16 18 5.58729
r45 16 17 13.8462
r46 15 26 0.587288
r47 14 22 0.587288
r48 14 15 76.9231
r49 13 33 4.63979
r50 12 19 5.58729
r51 12 13 23.0769
r52 8 24 0.587288
r53 8 10 161.923
r54 4 34 8.27089
r55 4 6 87.6923
r56 3 20 0.587288
r57 2 33 8.27089
r58 2 3 13.8462
.ends

.subckt PM_CONTROL_X5_X0_6 6 10 28 30
r0 78 121 0.017931
r1 69 70 0.146
r2 67 68 0.534
r3 61 63 0.0525
r4 56 66 0.0517569
r5 56 58 0.209231
r6 54 65 0.101866
r7 54 66 0.28
r8 52 121 0.0276608
r9 52 53 0.105
r10 50 51 0.2975
r11 48 65 0.0174182
r12 48 49 0.1175
r13 43 50 0.0458784
r14 43 45 0.104615
r15 42 63 0.0046983
r16 41 53 0.0446983
r17 41 42 0.635
r18 40 49 0.0446983
r19 39 61 0.0046983
r20 39 40 0.2875
r21 37 51 0.0446983
r22 37 38 0.18
r23 36 73 0.0559551
r24 35 38 0.0446983
r25 35 36 0.11
r26 34 88 11.07
r27 34 67 0.0477743
r28 34 88 0.68
r29 33 83 11.07
r30 33 69 0.0477743
r31 33 83 0.68
r32 32 70 0.0477743
r33 32 78 0.68
r34 32 58 3.8825
r35 31 68 0.0477743
r36 31 73 0.68
r37 31 45 5.20333
r38 30 32 1.03022
r39 28 31 1.06083
r40 24 26 7.30769
r41 20 22 18.8462
r42 18 19 634.615
r43 17 34 4.63979
r44 16 18 5.58729
r45 16 17 13.8462
r46 15 26 0.587288
r47 14 22 0.587288
r48 14 15 76.9231
r49 13 33 4.63979
r50 12 19 5.58729
r51 12 13 23.0769
r52 8 24 0.587288
r53 8 10 161.923
r54 4 34 8.27089
r55 4 6 87.6923
r56 3 20 0.587288
r57 2 33 8.27089
r58 2 3 13.8462
.ends

.subckt PM_CONTROL_X5_X1_6 6 10 28 30
r0 78 121 0.017931
r1 69 70 0.146
r2 67 68 0.534
r3 61 63 0.0525
r4 56 66 0.0517569
r5 56 58 0.209231
r6 54 65 0.101866
r7 54 66 0.28
r8 52 121 0.0276608
r9 52 53 0.105
r10 50 51 0.2975
r11 48 65 0.0174182
r12 48 49 0.1175
r13 43 50 0.0458784
r14 43 45 0.104615
r15 42 63 0.0046983
r16 41 53 0.0446983
r17 41 42 0.635
r18 40 49 0.0446983
r19 39 61 0.0046983
r20 39 40 0.2875
r21 37 51 0.0446983
r22 37 38 0.18
r23 36 73 0.0559551
r24 35 38 0.0446983
r25 35 36 0.11
r26 34 88 11.07
r27 34 67 0.0477743
r28 34 88 0.68
r29 33 83 11.07
r30 33 69 0.0477743
r31 33 83 0.68
r32 32 70 0.0477743
r33 32 78 0.68
r34 32 58 3.8825
r35 31 68 0.0477743
r36 31 73 0.68
r37 31 45 5.20333
r38 30 32 1.03022
r39 28 31 1.06083
r40 24 26 7.30769
r41 20 22 18.8462
r42 18 19 634.615
r43 17 34 4.63979
r44 16 18 5.58729
r45 16 17 13.8462
r46 15 26 0.587288
r47 14 22 0.587288
r48 14 15 76.9231
r49 13 33 4.63979
r50 12 19 5.58729
r51 12 13 23.0769
r52 8 24 0.587288
r53 8 10 161.923
r54 4 34 8.27089
r55 4 6 87.6923
r56 3 20 0.587288
r57 2 33 8.27089
r58 2 3 13.8462
.ends

.subckt PM_CONTROL_X6_X0_6 6 10 28 30
r0 78 121 0.017931
r1 69 70 0.146
r2 67 68 0.534
r3 61 63 0.0525
r4 56 66 0.0517569
r5 56 58 0.209231
r6 54 65 0.101866
r7 54 66 0.28
r8 52 121 0.0276608
r9 52 53 0.105
r10 50 51 0.2975
r11 48 65 0.0174182
r12 48 49 0.1175
r13 43 50 0.0458784
r14 43 45 0.104615
r15 42 63 0.0046983
r16 41 53 0.0446983
r17 41 42 0.635
r18 40 49 0.0446983
r19 39 61 0.0046983
r20 39 40 0.2875
r21 37 51 0.0446983
r22 37 38 0.18
r23 36 73 0.0559551
r24 35 38 0.0446983
r25 35 36 0.11
r26 34 88 11.07
r27 34 67 0.0477743
r28 34 88 0.68
r29 33 83 11.07
r30 33 69 0.0477743
r31 33 83 0.68
r32 32 70 0.0477743
r33 32 78 0.68
r34 32 58 3.8825
r35 31 68 0.0477743
r36 31 73 0.68
r37 31 45 5.20333
r38 30 32 1.03022
r39 28 31 1.06083
r40 24 26 7.30769
r41 20 22 18.8462
r42 18 19 634.615
r43 17 34 4.63979
r44 16 18 5.58729
r45 16 17 13.8462
r46 15 26 0.587288
r47 14 22 0.587288
r48 14 15 76.9231
r49 13 33 4.63979
r50 12 19 5.58729
r51 12 13 23.0769
r52 8 24 0.587288
r53 8 10 161.923
r54 4 34 8.27089
r55 4 6 87.6923
r56 3 20 0.587288
r57 2 33 8.27089
r58 2 3 13.8462
.ends

.subckt PM_CONTROL_X6_X1_6 6 10 28 30
r0 78 121 0.017931
r1 69 70 0.146
r2 67 68 0.534
r3 61 63 0.0525
r4 56 66 0.0517569
r5 56 58 0.209231
r6 54 65 0.101866
r7 54 66 0.28
r8 52 121 0.0276608
r9 52 53 0.105
r10 50 51 0.2975
r11 48 65 0.0174182
r12 48 49 0.1175
r13 43 50 0.0458784
r14 43 45 0.104615
r15 42 63 0.0046983
r16 41 53 0.0446983
r17 41 42 0.635
r18 40 49 0.0446983
r19 39 61 0.0046983
r20 39 40 0.2875
r21 37 51 0.0446983
r22 37 38 0.18
r23 36 73 0.0559551
r24 35 38 0.0446983
r25 35 36 0.11
r26 34 88 11.07
r27 34 67 0.0477743
r28 34 88 0.68
r29 33 83 11.07
r30 33 69 0.0477743
r31 33 83 0.68
r32 32 70 0.0477743
r33 32 78 0.68
r34 32 58 3.8825
r35 31 68 0.0477743
r36 31 73 0.68
r37 31 45 5.20333
r38 30 32 1.03022
r39 28 31 1.06083
r40 24 26 7.30769
r41 20 22 18.8462
r42 18 19 634.615
r43 17 34 4.63979
r44 16 18 5.58729
r45 16 17 13.8462
r46 15 26 0.587288
r47 14 22 0.587288
r48 14 15 76.9231
r49 13 33 4.63979
r50 12 19 5.58729
r51 12 13 23.0769
r52 8 24 0.587288
r53 8 10 161.923
r54 4 34 8.27089
r55 4 6 87.6923
r56 3 20 0.587288
r57 2 33 8.27089
r58 2 3 13.8462
.ends

.subckt PM_CONTROL_X0_7 1 3 60 64
r0 102 103 0.748
r1 100 103 0.0446983
r2 100 106 0.962
r3 74 102 0.0477743
r4 67 90 0.68
r5 67 81 2
r6 67 90 11.07
r7 67 74 0.68
r8 66 70 11.07
r9 66 70 0.68
r10 62 81 4.20996
r11 62 64 647.308
r12 58 60 96.9231
r13 57 66 6.11371
r14 56 81 7.85253
r15 56 57 14.75
r16 54 58 5.58729
r17 54 55 28.4615
r18 53 55 5.58729
r19 52 66 4.63979
r20 52 53 273.846
r21 32 106 0.0477743
r22 28 30 0.11
r23 24 26 0.1325
r24 19 22 0.0517569
r25 17 30 0.0046983
r26 16 45 0.0559551
r27 16 17 0.7025
r28 15 45 0.0559551
r29 14 26 0.0046983
r30 14 15 4.6675
r31 12 28 0.0046983
r32 12 23 0.3225
r33 11 24 0.0046983
r34 11 22 0.3
r35 5 23 0.0517569
r36 5 7 0.209231
r37 4 45 0.68
r38 4 32 0.68
r39 4 19 15.61
r40 4 7 3.8825
r41 3 4 0.921778
r42 1 4 1.89833
.ends

.subckt PM_CONTROL_X1_7 1 3 60 64
r0 102 103 0.748
r1 100 103 0.0446983
r2 100 106 0.962
r3 74 102 0.0477743
r4 67 90 0.68
r5 67 81 2
r6 67 90 11.07
r7 67 74 0.68
r8 66 70 11.07
r9 66 70 0.68
r10 62 81 4.20996
r11 62 64 647.308
r12 58 60 96.9231
r13 57 66 6.11371
r14 56 81 7.85253
r15 56 57 14.75
r16 54 58 5.58729
r17 54 55 28.4615
r18 53 55 5.58729
r19 52 66 4.63979
r20 52 53 273.846
r21 32 106 0.0477743
r22 28 30 0.11
r23 24 26 0.1325
r24 19 22 0.0517569
r25 17 30 0.0046983
r26 16 45 0.0559551
r27 16 17 0.7025
r28 15 45 0.0559551
r29 14 26 0.0046983
r30 14 15 4.6675
r31 12 28 0.0046983
r32 12 23 0.3225
r33 11 24 0.0046983
r34 11 22 0.3
r35 5 23 0.0517569
r36 5 7 0.209231
r37 4 45 0.68
r38 4 32 0.68
r39 4 19 15.61
r40 4 7 3.8825
r41 3 4 0.921778
r42 1 4 1.89833
.ends

.subckt PM_CONTROL_X2_7 1 3 60 64
r0 102 103 0.748
r1 100 103 0.0446983
r2 100 106 0.962
r3 74 102 0.0477743
r4 67 90 0.68
r5 67 81 2
r6 67 90 11.07
r7 67 74 0.68
r8 66 70 11.07
r9 66 70 0.68
r10 62 81 4.20996
r11 62 64 647.308
r12 58 60 96.9231
r13 57 66 6.11371
r14 56 81 7.85253
r15 56 57 14.75
r16 54 58 5.58729
r17 54 55 28.4615
r18 53 55 5.58729
r19 52 66 4.63979
r20 52 53 273.846
r21 32 106 0.0477743
r22 28 30 0.11
r23 24 26 0.1325
r24 19 22 0.0517569
r25 17 30 0.0046983
r26 16 45 0.0559551
r27 16 17 0.7025
r28 15 45 0.0559551
r29 14 26 0.0046983
r30 14 15 4.6675
r31 12 28 0.0046983
r32 12 23 0.3225
r33 11 24 0.0046983
r34 11 22 0.3
r35 5 23 0.0517569
r36 5 7 0.209231
r37 4 45 0.68
r38 4 32 0.68
r39 4 19 15.61
r40 4 7 3.8825
r41 3 4 0.921778
r42 1 4 1.89833
.ends

.subckt PM_CONTROL_X3_7 1 3 60 64
r0 102 103 0.748
r1 100 103 0.0446983
r2 100 106 0.962
r3 74 102 0.0477743
r4 67 90 0.68
r5 67 81 2
r6 67 90 11.07
r7 67 74 0.68
r8 66 70 11.07
r9 66 70 0.68
r10 62 81 4.20996
r11 62 64 647.308
r12 58 60 96.9231
r13 57 66 6.11371
r14 56 81 7.85253
r15 56 57 14.75
r16 54 58 5.58729
r17 54 55 28.4615
r18 53 55 5.58729
r19 52 66 4.63979
r20 52 53 273.846
r21 32 106 0.0477743
r22 28 30 0.11
r23 24 26 0.1325
r24 19 22 0.0517569
r25 17 30 0.0046983
r26 16 45 0.0559551
r27 16 17 0.7025
r28 15 45 0.0559551
r29 14 26 0.0046983
r30 14 15 4.6675
r31 12 28 0.0046983
r32 12 23 0.3225
r33 11 24 0.0046983
r34 11 22 0.3
r35 5 23 0.0517569
r36 5 7 0.209231
r37 4 45 0.68
r38 4 32 0.68
r39 4 19 15.61
r40 4 7 3.8825
r41 3 4 0.921778
r42 1 4 1.89833
.ends

.subckt PM_CONTROL_X4_7 1 3 60 64
r0 102 103 0.748
r1 100 103 0.0446983
r2 100 106 0.962
r3 74 102 0.0477743
r4 67 90 0.68
r5 67 81 2
r6 67 90 11.07
r7 67 74 0.68
r8 66 70 11.07
r9 66 70 0.68
r10 62 81 4.20996
r11 62 64 647.308
r12 58 60 96.9231
r13 57 66 6.11371
r14 56 81 7.85253
r15 56 57 14.75
r16 54 58 5.58729
r17 54 55 28.4615
r18 53 55 5.58729
r19 52 66 4.63979
r20 52 53 273.846
r21 32 106 0.0477743
r22 28 30 0.11
r23 24 26 0.1325
r24 19 22 0.0517569
r25 17 30 0.0046983
r26 16 45 0.0559551
r27 16 17 0.7025
r28 15 45 0.0559551
r29 14 26 0.0046983
r30 14 15 4.6675
r31 12 28 0.0046983
r32 12 23 0.3225
r33 11 24 0.0046983
r34 11 22 0.3
r35 5 23 0.0517569
r36 5 7 0.209231
r37 4 45 0.68
r38 4 32 0.68
r39 4 19 15.61
r40 4 7 3.8825
r41 3 4 0.921778
r42 1 4 1.89833
.ends

.subckt PM_CONTROL_X5_7 1 3 60 64
r0 102 103 0.748
r1 100 103 0.0446983
r2 100 106 0.962
r3 74 102 0.0477743
r4 67 90 0.68
r5 67 81 2
r6 67 90 11.07
r7 67 74 0.68
r8 66 70 11.07
r9 66 70 0.68
r10 62 81 4.20996
r11 62 64 647.308
r12 58 60 96.9231
r13 57 66 6.11371
r14 56 81 7.85253
r15 56 57 14.75
r16 54 58 5.58729
r17 54 55 28.4615
r18 53 55 5.58729
r19 52 66 4.63979
r20 52 53 273.846
r21 32 106 0.0477743
r22 28 30 0.11
r23 24 26 0.1325
r24 19 22 0.0517569
r25 17 30 0.0046983
r26 16 45 0.0559551
r27 16 17 0.7025
r28 15 45 0.0559551
r29 14 26 0.0046983
r30 14 15 4.6675
r31 12 28 0.0046983
r32 12 23 0.3225
r33 11 24 0.0046983
r34 11 22 0.3
r35 5 23 0.0517569
r36 5 7 0.209231
r37 4 45 0.68
r38 4 32 0.68
r39 4 19 15.61
r40 4 7 3.8825
r41 3 4 0.921778
r42 1 4 1.89833
.ends

.subckt PM_CONTROL_X6_7 1 3 60 64
r0 102 103 0.748
r1 100 103 0.0446983
r2 100 106 0.962
r3 74 102 0.0477743
r4 67 90 0.68
r5 67 81 2
r6 67 90 11.07
r7 67 74 0.68
r8 66 70 11.07
r9 66 70 0.68
r10 62 81 4.20996
r11 62 64 647.308
r12 58 60 96.9231
r13 57 66 6.11371
r14 56 81 7.85253
r15 56 57 14.75
r16 54 58 5.58729
r17 54 55 28.4615
r18 53 55 5.58729
r19 52 66 4.63979
r20 52 53 273.846
r21 32 106 0.0477743
r22 28 30 0.11
r23 24 26 0.1325
r24 19 22 0.0517569
r25 17 30 0.0046983
r26 16 45 0.0559551
r27 16 17 0.7025
r28 15 45 0.0559551
r29 14 26 0.0046983
r30 14 15 4.6675
r31 12 28 0.0046983
r32 12 23 0.3225
r33 11 24 0.0046983
r34 11 22 0.3
r35 5 23 0.0517569
r36 5 7 0.209231
r37 4 45 0.68
r38 4 32 0.68
r39 4 19 15.61
r40 4 7 3.8825
r41 3 4 0.921778
r42 1 4 1.89833
.ends

.subckt PM_CONTROL_X7_6 10 20 33 35
r0 65 68 0.0517569
r1 60 63 0.0517569
r2 55 57 0.145
r3 49 69 0.485
r4 44 69 0.0490438
r5 44 46 0.418462
r6 42 49 0.0446983
r7 42 63 0.465
r8 41 57 0.0046983
r9 41 68 0.525
r10 39 52 0.0517569
r11 38 55 0.0046983
r12 38 39 0.485
r13 37 60 11.07
r14 37 46 1.94125
r15 36 65 15.61
r16 36 52 11.07
r17 35 37 0.460889
r18 33 36 2.12167
r19 29 31 16.5385
r20 24 26 10
r21 22 31 0.587288
r22 22 23 94.6154
r23 18 26 0.587288
r24 18 20 67.6923
r25 17 29 0.587288
r26 16 28 4.23445
r27 16 17 185.769
r28 15 28 4.23445
r29 14 24 0.587288
r30 14 15 316.923
r31 12 23 5.58729
r32 12 13 68.8462
r33 8 37 8.27089
r34 8 10 120
r35 7 37 8.27089
r36 6 13 5.58729
r37 6 7 122.308
r38 4 28 1.10046
r39 4 5 64.6154
r40 3 5 5.58729
r41 2 36 8.27089
r42 2 3 195.385
.ends

.subckt PM_CONTROL_X8_6 10 20 33 35
r0 65 68 0.0517569
r1 60 63 0.0517569
r2 55 57 0.145
r3 49 69 0.485
r4 44 69 0.0490438
r5 44 46 0.418462
r6 42 49 0.0446983
r7 42 63 0.465
r8 41 57 0.0046983
r9 41 68 0.525
r10 39 52 0.0517569
r11 38 55 0.0046983
r12 38 39 0.485
r13 37 60 11.07
r14 37 46 1.94125
r15 36 65 15.61
r16 36 52 11.07
r17 35 37 0.460889
r18 33 36 2.12167
r19 29 31 16.5385
r20 24 26 10
r21 22 31 0.587288
r22 22 23 94.6154
r23 18 26 0.587288
r24 18 20 67.6923
r25 17 29 0.587288
r26 16 28 4.23445
r27 16 17 185.769
r28 15 28 4.23445
r29 14 24 0.587288
r30 14 15 316.923
r31 12 23 5.58729
r32 12 13 68.8462
r33 8 37 8.27089
r34 8 10 120
r35 7 37 8.27089
r36 6 13 5.58729
r37 6 7 122.308
r38 4 28 1.10046
r39 4 5 64.6154
r40 3 5 5.58729
r41 2 36 8.27089
r42 2 3 195.385
.ends

.subckt PM_CONTROL_X9_6 10 20 33 35
r0 65 68 0.0517569
r1 60 63 0.0517569
r2 55 57 0.145
r3 49 69 0.485
r4 44 69 0.0490438
r5 44 46 0.418462
r6 42 49 0.0446983
r7 42 63 0.465
r8 41 57 0.0046983
r9 41 68 0.525
r10 39 52 0.0517569
r11 38 55 0.0046983
r12 38 39 0.485
r13 37 60 11.07
r14 37 46 1.94125
r15 36 65 15.61
r16 36 52 11.07
r17 35 37 0.460889
r18 33 36 2.12167
r19 29 31 16.5385
r20 24 26 10
r21 22 31 0.587288
r22 22 23 94.6154
r23 18 26 0.587288
r24 18 20 67.6923
r25 17 29 0.587288
r26 16 28 4.23445
r27 16 17 185.769
r28 15 28 4.23445
r29 14 24 0.587288
r30 14 15 316.923
r31 12 23 5.58729
r32 12 13 68.8462
r33 8 37 8.27089
r34 8 10 120
r35 7 37 8.27089
r36 6 13 5.58729
r37 6 7 122.308
r38 4 28 1.10046
r39 4 5 64.6154
r40 3 5 5.58729
r41 2 36 8.27089
r42 2 3 195.385
.ends

.subckt PM_CONTROL_X10_X0_6 10 20 33 35
r0 65 68 0.0517569
r1 60 63 0.0517569
r2 55 57 0.145
r3 49 69 0.485
r4 44 69 0.0490438
r5 44 46 0.418462
r6 42 49 0.0446983
r7 42 63 0.465
r8 41 57 0.0046983
r9 41 68 0.525
r10 39 52 0.0517569
r11 38 55 0.0046983
r12 38 39 0.485
r13 37 60 11.07
r14 37 46 1.94125
r15 36 65 15.61
r16 36 52 11.07
r17 35 37 0.460889
r18 33 36 2.12167
r19 29 31 16.5385
r20 24 26 10
r21 22 31 0.587288
r22 22 23 94.6154
r23 18 26 0.587288
r24 18 20 67.6923
r25 17 29 0.587288
r26 16 28 4.23445
r27 16 17 185.769
r28 15 28 4.23445
r29 14 24 0.587288
r30 14 15 316.923
r31 12 23 5.58729
r32 12 13 68.8462
r33 8 37 8.27089
r34 8 10 120
r35 7 37 8.27089
r36 6 13 5.58729
r37 6 7 122.308
r38 4 28 1.10046
r39 4 5 64.6154
r40 3 5 5.58729
r41 2 36 8.27089
r42 2 3 195.385
.ends

.subckt PM_CONTROL_X10_X1_6 10 20 33 35
r0 65 68 0.0517569
r1 60 63 0.0517569
r2 55 57 0.145
r3 49 69 0.485
r4 44 69 0.0490438
r5 44 46 0.418462
r6 42 49 0.0446983
r7 42 63 0.465
r8 41 57 0.0046983
r9 41 68 0.525
r10 39 52 0.0517569
r11 38 55 0.0046983
r12 38 39 0.485
r13 37 60 11.07
r14 37 46 1.94125
r15 36 65 15.61
r16 36 52 11.07
r17 35 37 0.460889
r18 33 36 2.12167
r19 29 31 16.5385
r20 24 26 10
r21 22 31 0.587288
r22 22 23 94.6154
r23 18 26 0.587288
r24 18 20 67.6923
r25 17 29 0.587288
r26 16 28 4.23445
r27 16 17 185.769
r28 15 28 4.23445
r29 14 24 0.587288
r30 14 15 316.923
r31 12 23 5.58729
r32 12 13 68.8462
r33 8 37 8.27089
r34 8 10 120
r35 7 37 8.27089
r36 6 13 5.58729
r37 6 7 122.308
r38 4 28 1.10046
r39 4 5 64.6154
r40 3 5 5.58729
r41 2 36 8.27089
r42 2 3 195.385
.ends

.subckt PM_CONTROL_X11_X0_6 10 20 33 35
r0 65 68 0.0517569
r1 60 63 0.0517569
r2 55 57 0.145
r3 49 69 0.485
r4 44 69 0.0490438
r5 44 46 0.418462
r6 42 49 0.0446983
r7 42 63 0.465
r8 41 57 0.0046983
r9 41 68 0.525
r10 39 52 0.0517569
r11 38 55 0.0046983
r12 38 39 0.485
r13 37 60 11.07
r14 37 46 1.94125
r15 36 65 15.61
r16 36 52 11.07
r17 35 37 0.460889
r18 33 36 2.12167
r19 29 31 16.5385
r20 24 26 10
r21 22 31 0.587288
r22 22 23 94.6154
r23 18 26 0.587288
r24 18 20 67.6923
r25 17 29 0.587288
r26 16 28 4.23445
r27 16 17 185.769
r28 15 28 4.23445
r29 14 24 0.587288
r30 14 15 316.923
r31 12 23 5.58729
r32 12 13 68.8462
r33 8 37 8.27089
r34 8 10 120
r35 7 37 8.27089
r36 6 13 5.58729
r37 6 7 122.308
r38 4 28 1.10046
r39 4 5 64.6154
r40 3 5 5.58729
r41 2 36 8.27089
r42 2 3 195.385
.ends

.subckt PM_CONTROL_X11_X1_6 10 20 33 35
r0 65 68 0.0517569
r1 60 63 0.0517569
r2 55 57 0.145
r3 49 69 0.485
r4 44 69 0.0490438
r5 44 46 0.418462
r6 42 49 0.0446983
r7 42 63 0.465
r8 41 57 0.0046983
r9 41 68 0.525
r10 39 52 0.0517569
r11 38 55 0.0046983
r12 38 39 0.485
r13 37 60 11.07
r14 37 46 1.94125
r15 36 65 15.61
r16 36 52 11.07
r17 35 37 0.460889
r18 33 36 2.12167
r19 29 31 16.5385
r20 24 26 10
r21 22 31 0.587288
r22 22 23 94.6154
r23 18 26 0.587288
r24 18 20 67.6923
r25 17 29 0.587288
r26 16 28 4.23445
r27 16 17 185.769
r28 15 28 4.23445
r29 14 24 0.587288
r30 14 15 316.923
r31 12 23 5.58729
r32 12 13 68.8462
r33 8 37 8.27089
r34 8 10 120
r35 7 37 8.27089
r36 6 13 5.58729
r37 6 7 122.308
r38 4 28 1.10046
r39 4 5 64.6154
r40 3 5 5.58729
r41 2 36 8.27089
r42 2 3 195.385
.ends

.subckt PM_CONTROL_X12_X0_6 10 20 33 35
r0 65 68 0.0517569
r1 60 63 0.0517569
r2 55 57 0.145
r3 49 69 0.485
r4 44 69 0.0490438
r5 44 46 0.418462
r6 42 49 0.0446983
r7 42 63 0.465
r8 41 57 0.0046983
r9 41 68 0.525
r10 39 52 0.0517569
r11 38 55 0.0046983
r12 38 39 0.485
r13 37 60 11.07
r14 37 46 1.94125
r15 36 65 15.61
r16 36 52 11.07
r17 35 37 0.460889
r18 33 36 2.12167
r19 29 31 16.5385
r20 24 26 10
r21 22 31 0.587288
r22 22 23 94.6154
r23 18 26 0.587288
r24 18 20 67.6923
r25 17 29 0.587288
r26 16 28 4.23445
r27 16 17 185.769
r28 15 28 4.23445
r29 14 24 0.587288
r30 14 15 316.923
r31 12 23 5.58729
r32 12 13 68.8462
r33 8 37 8.27089
r34 8 10 120
r35 7 37 8.27089
r36 6 13 5.58729
r37 6 7 122.308
r38 4 28 1.10046
r39 4 5 64.6154
r40 3 5 5.58729
r41 2 36 8.27089
r42 2 3 195.385
.ends

.subckt PM_CONTROL_X12_X1_6 10 20 33 35
r0 65 68 0.0517569
r1 60 63 0.0517569
r2 55 57 0.145
r3 49 69 0.485
r4 44 69 0.0490438
r5 44 46 0.418462
r6 42 49 0.0446983
r7 42 63 0.465
r8 41 57 0.0046983
r9 41 68 0.525
r10 39 52 0.0517569
r11 38 55 0.0046983
r12 38 39 0.485
r13 37 60 11.07
r14 37 46 1.94125
r15 36 65 15.61
r16 36 52 11.07
r17 35 37 0.460889
r18 33 36 2.12167
r19 29 31 16.5385
r20 24 26 10
r21 22 31 0.587288
r22 22 23 94.6154
r23 18 26 0.587288
r24 18 20 67.6923
r25 17 29 0.587288
r26 16 28 4.23445
r27 16 17 185.769
r28 15 28 4.23445
r29 14 24 0.587288
r30 14 15 316.923
r31 12 23 5.58729
r32 12 13 68.8462
r33 8 37 8.27089
r34 8 10 120
r35 7 37 8.27089
r36 6 13 5.58729
r37 6 7 122.308
r38 4 28 1.10046
r39 4 5 64.6154
r40 3 5 5.58729
r41 2 36 8.27089
r42 2 3 195.385
.ends

.subckt PM_CONTROL_X13_X0_6 10 20 33 35
r0 65 68 0.0517569
r1 60 63 0.0517569
r2 55 57 0.145
r3 49 69 0.485
r4 44 69 0.0490438
r5 44 46 0.418462
r6 42 49 0.0446983
r7 42 63 0.465
r8 41 57 0.0046983
r9 41 68 0.525
r10 39 52 0.0517569
r11 38 55 0.0046983
r12 38 39 0.485
r13 37 60 11.07
r14 37 46 1.94125
r15 36 65 15.61
r16 36 52 11.07
r17 35 37 0.460889
r18 33 36 2.12167
r19 29 31 16.5385
r20 24 26 10
r21 22 31 0.587288
r22 22 23 94.6154
r23 18 26 0.587288
r24 18 20 67.6923
r25 17 29 0.587288
r26 16 28 4.23445
r27 16 17 185.769
r28 15 28 4.23445
r29 14 24 0.587288
r30 14 15 316.923
r31 12 23 5.58729
r32 12 13 68.8462
r33 8 37 8.27089
r34 8 10 120
r35 7 37 8.27089
r36 6 13 5.58729
r37 6 7 122.308
r38 4 28 1.10046
r39 4 5 64.6154
r40 3 5 5.58729
r41 2 36 8.27089
r42 2 3 195.385
.ends

.subckt PM_CONTROL_X13_X1_6 10 20 33 35
r0 65 68 0.0517569
r1 60 63 0.0517569
r2 55 57 0.145
r3 49 69 0.485
r4 44 69 0.0490438
r5 44 46 0.418462
r6 42 49 0.0446983
r7 42 63 0.465
r8 41 57 0.0046983
r9 41 68 0.525
r10 39 52 0.0517569
r11 38 55 0.0046983
r12 38 39 0.485
r13 37 60 11.07
r14 37 46 1.94125
r15 36 65 15.61
r16 36 52 11.07
r17 35 37 0.460889
r18 33 36 2.12167
r19 29 31 16.5385
r20 24 26 10
r21 22 31 0.587288
r22 22 23 94.6154
r23 18 26 0.587288
r24 18 20 67.6923
r25 17 29 0.587288
r26 16 28 4.23445
r27 16 17 185.769
r28 15 28 4.23445
r29 14 24 0.587288
r30 14 15 316.923
r31 12 23 5.58729
r32 12 13 68.8462
r33 8 37 8.27089
r34 8 10 120
r35 7 37 8.27089
r36 6 13 5.58729
r37 6 7 122.308
r38 4 28 1.10046
r39 4 5 64.6154
r40 3 5 5.58729
r41 2 36 8.27089
r42 2 3 195.385
.ends

.subckt PM_CONTROL_X14_X0_6 10 20 33 35
r0 65 68 0.0517569
r1 60 63 0.0517569
r2 55 57 0.145
r3 49 69 0.485
r4 44 69 0.0490438
r5 44 46 0.418462
r6 42 49 0.0446983
r7 42 63 0.465
r8 41 57 0.0046983
r9 41 68 0.525
r10 39 52 0.0517569
r11 38 55 0.0046983
r12 38 39 0.485
r13 37 60 11.07
r14 37 46 1.94125
r15 36 65 15.61
r16 36 52 11.07
r17 35 37 0.460889
r18 33 36 2.12167
r19 29 31 16.5385
r20 24 26 10