* File: reg.pex.netlist.pex
* Created: Thu Apr 18 14:09:30 2019
* Program "Calibre xRC"
* Version "v2012.2_36.25"
* Nominal Temperature: 27C
* Circuit Temperature: 27C
* 
.subckt PM_REG_X8_X0_7 6 12 16 18
r0 54 56 0.0475
r1 41 62 0.0338756
r2 41 42 1.705
r3 40 62 0.0338756
r4 39 59 0.0517569
r5 39 40 1.0625
r6 37 56 0.0046983
r7 37 38 0.77
r8 32 38 0.0458784
r9 32 34 0.209231
r10 31 54 0.0046983
r11 30 52 0.0517569
r12 30 31 0.11
r13 29 52 0.0517569
r14 28 29 0.9075
r15 27 48 0.0517569
r16 26 62 0.00880368
r17 26 27 0.35
r18 25 44 0.0234599
r19 24 42 0.0446983
r20 24 25 0.6525
r21 22 28 0.0446983
r22 22 23 0.625
r23 21 23 0.0446983
r24 20 44 0.0517569
r25 20 21 1.5675
r26 19 59 15.61
r27 19 52 11.07
r28 19 48 11.07
r29 19 44 11.07
r30 19 34 3.8825
r31 18 19 0.921778
r32 16 19 1.89833
r33 14 19 8.27089
r34 14 15 109.615
r35 10 15 5.58729
r36 10 12 201.923
r37 8 19 8.27089
r38 8 9 86.1538
r39 4 9 5.58729
r40 4 6 174.615
.ends

.subckt PM_REG_X8_X1_7 6 12 16 18
r0 54 56 0.0475
r1 41 62 0.0338756
r2 41 42 1.705
r3 40 62 0.0338756
r4 39 59 0.0517569
r5 39 40 1.0625
r6 37 56 0.0046983
r7 37 38 0.77
r8 32 38 0.0458784
r9 32 34 0.209231
r10 31 54 0.0046983
r11 30 52 0.0517569
r12 30 31 0.11
r13 29 52 0.0517569
r14 28 29 0.9075
r15 27 48 0.0517569
r16 26 62 0.00880368
r17 26 27 0.35
r18 25 44 0.0234599
r19 24 42 0.0446983
r20 24 25 0.6525
r21 22 28 0.0446983
r22 22 23 0.625
r23 21 23 0.0446983
r24 20 44 0.0517569
r25 20 21 1.5675
r26 19 59 15.61
r27 19 52 11.07
r28 19 48 11.07
r29 19 44 11.07
r30 19 34 3.8825
r31 18 19 0.921778
r32 16 19 1.89833
r33 14 19 8.27089
r34 14 15 109.615
r35 10 15 5.58729
r36 10 12 201.923
r37 8 19 8.27089
r38 8 9 86.1538
r39 4 9 5.58729
r40 4 6 174.615
.ends

.subckt PM_REG_X8_X2_7 6 12 16 18
r0 54 56 0.0475
r1 41 62 0.0338756
r2 41 42 1.705
r3 40 62 0.0338756
r4 39 59 0.0517569
r5 39 40 1.0625
r6 37 56 0.0046983
r7 37 38 0.77
r8 32 38 0.0458784
r9 32 34 0.209231
r10 31 54 0.0046983
r11 30 52 0.0517569
r12 30 31 0.11
r13 29 52 0.0517569
r14 28 29 0.9075
r15 27 48 0.0517569
r16 26 62 0.00880368
r17 26 27 0.35
r18 25 44 0.0234599
r19 24 42 0.0446983
r20 24 25 0.6525
r21 22 28 0.0446983
r22 22 23 0.625
r23 21 23 0.0446983
r24 20 44 0.0517569
r25 20 21 1.5675
r26 19 59 15.61
r27 19 52 11.07
r28 19 48 11.07
r29 19 44 11.07
r30 19 34 3.8825
r31 18 19 0.921778
r32 16 19 1.89833
r33 14 19 8.27089
r34 14 15 109.615
r35 10 15 5.58729
r36 10 12 201.923
r37 8 19 8.27089
r38 8 9 86.1538
r39 4 9 5.58729
r40 4 6 174.615
.ends

.subckt PM_REG_X8_X3_7 6 12 16 18
r0 54 56 0.0475
r1 41 62 0.0338756
r2 41 42 1.705
r3 40 62 0.0338756
r4 39 59 0.0517569
r5 39 40 1.0625
r6 37 56 0.0046983
r7 37 38 0.77
r8 32 38 0.0458784
r9 32 34 0.209231
r10 31 54 0.0046983
r11 30 52 0.0517569
r12 30 31 0.11
r13 29 52 0.0517569
r14 28 29 0.9075
r15 27 48 0.0517569
r16 26 62 0.00880368
r17 26 27 0.35
r18 25 44 0.0234599
r19 24 42 0.0446983
r20 24 25 0.6525
r21 22 28 0.0446983
r22 22 23 0.625
r23 21 23 0.0446983
r24 20 44 0.0517569
r25 20 21 1.5675
r26 19 59 15.61
r27 19 52 11.07
r28 19 48 11.07
r29 19 44 11.07
r30 19 34 3.8825
r31 18 19 0.921778
r32 16 19 1.89833
r33 14 19 8.27089
r34 14 15 109.615
r35 10 15 5.58729
r36 10 12 201.923
r37 8 19 8.27089
r38 8 9 86.1538
r39 4 9 5.58729
r40 4 6 174.615
.ends

.subckt PM_REG_X8_X4_7 6 12 16 18
r0 54 56 0.0475
r1 41 62 0.0338756
r2 41 42 1.705
r3 40 62 0.0338756
r4 39 59 0.0517569
r5 39 40 1.0625
r6 37 56 0.0046983
r7 37 38 0.77
r8 32 38 0.0458784
r9 32 34 0.209231
r10 31 54 0.0046983
r11 30 52 0.0517569
r12 30 31 0.11
r13 29 52 0.0517569
r14 28 29 0.9075
r15 27 48 0.0517569
r16 26 62 0.00880368
r17 26 27 0.35
r18 25 44 0.0234599
r19 24 42 0.0446983
r20 24 25 0.6525
r21 22 28 0.0446983
r22 22 23 0.625
r23 21 23 0.0446983
r24 20 44 0.0517569
r25 20 21 1.5675
r26 19 59 15.61
r27 19 52 11.07
r28 19 48 11.07
r29 19 44 11.07
r30 19 34 3.8825
r31 18 19 0.921778
r32 16 19 1.89833
r33 14 19 8.27089
r34 14 15 109.615
r35 10 15 5.58729
r36 10 12 201.923
r37 8 19 8.27089
r38 8 9 86.1538
r39 4 9 5.58729
r40 4 6 174.615
.ends

.subckt PM_REG_X8_X5_7 6 12 16 18
r0 54 56 0.0475
r1 41 62 0.0338756
r2 41 42 1.705
r3 40 62 0.0338756
r4 39 59 0.0517569
r5 39 40 1.0625
r6 37 56 0.0046983
r7 37 38 0.77
r8 32 38 0.0458784
r9 32 34 0.209231
r10 31 54 0.0046983
r11 30 52 0.0517569
r12 30 31 0.11
r13 29 52 0.0517569
r14 28 29 0.9075
r15 27 48 0.0517569
r16 26 62 0.00880368
r17 26 27 0.35
r18 25 44 0.0234599
r19 24 42 0.0446983
r20 24 25 0.6525
r21 22 28 0.0446983
r22 22 23 0.625
r23 21 23 0.0446983
r24 20 44 0.0517569
r25 20 21 1.5675
r26 19 59 15.61
r27 19 52 11.07
r28 19 48 11.07
r29 19 44 11.07
r30 19 34 3.8825
r31 18 19 0.921778
r32 16 19 1.89833
r33 14 19 8.27089
r34 14 15 109.615
r35 10 15 5.58729
r36 10 12 201.923
r37 8 19 8.27089
r38 8 9 86.1538
r39 4 9 5.58729
r40 4 6 174.615
.ends

.subckt PM_REG_X8_X6_7 6 12 16 18
r0 54 56 0.0475
r1 41 62 0.0338756
r2 41 42 1.705
r3 40 62 0.0338756
r4 39 59 0.0517569
r5 39 40 1.0625
r6 37 56 0.0046983
r7 37 38 0.77
r8 32 38 0.0458784
r9 32 34 0.209231
r10 31 54 0.0046983
r11 30 52 0.0517569
r12 30 31 0.11
r13 29 52 0.0517569
r14 28 29 0.9075
r15 27 48 0.0517569
r16 26 62 0.00880368
r17 26 27 0.35
r18 25 44 0.0234599
r19 24 42 0.0446983
r20 24 25 0.6525
r21 22 28 0.0446983
r22 22 23 0.625
r23 21 23 0.0446983
r24 20 44 0.0517569
r25 20 21 1.5675
r26 19 59 15.61
r27 19 52 11.07
r28 19 48 11.07
r29 19 44 11.07
r30 19 34 3.8825
r31 18 19 0.921778
r32 16 19 1.89833
r33 14 19 8.27089
r34 14 15 109.615
r35 10 15 5.58729
r36 10 12 201.923
r37 8 19 8.27089
r38 8 9 86.1538
r39 4 9 5.58729
r40 4 6 174.615
.ends

.subckt PM_REG_X9_X0_7 6 12 16 18
r0 54 56 0.0475
r1 41 62 0.0338756
r2 41 42 1.705
r3 40 62 0.0338756
r4 39 59 0.0517569
r5 39 40 1.0625
r6 37 56 0.0046983
r7 37 38 0.77
r8 32 38 0.0458784
r9 32 34 0.209231
r10 31 54 0.0046983
r11 30 52 0.0517569
r12 30 31 0.11
r13 29 52 0.0517569
r14 28 29 0.9075
r15 27 48 0.0517569
r16 26 62 0.00880368
r17 26 27 0.35
r18 25 44 0.0234599
r19 24 42 0.0446983
r20 24 25 0.6525
r21 22 28 0.0446983
r22 22 23 0.625
r23 21 23 0.0446983
r24 20 44 0.0517569
r25 20 21 1.5675
r26 19 59 15.61
r27 19 52 11.07
r28 19 48 11.07
r29 19 44 11.07
r30 19 34 3.8825
r31 18 19 0.921778
r32 16 19 1.89833
r33 14 19 8.27089
r34 14 15 109.615
r35 10 15 5.58729
r36 10 12 201.923
r37 8 19 8.27089
r38 8 9 86.1538
r39 4 9 5.58729
r40 4 6 174.615
.ends

.subckt PM_REG_X9_X1_7 6 12 16 18
r0 54 56 0.0475
r1 41 62 0.0338756
r2 41 42 1.705
r3 40 62 0.0338756
r4 39 59 0.0517569
r5 39 40 1.0625
r6 37 56 0.0046983
r7 37 38 0.77
r8 32 38 0.0458784
r9 32 34 0.209231
r10 31 54 0.0046983
r11 30 52 0.0517569
r12 30 31 0.11
r13 29 52 0.0517569
r14 28 29 0.9075
r15 27 48 0.0517569
r16 26 62 0.00880368
r17 26 27 0.35
r18 25 44 0.0234599
r19 24 42 0.0446983
r20 24 25 0.6525
r21 22 28 0.0446983
r22 22 23 0.625
r23 21 23 0.0446983
r24 20 44 0.0517569
r25 20 21 1.5675
r26 19 59 15.61
r27 19 52 11.07
r28 19 48 11.07
r29 19 44 11.07
r30 19 34 3.8825
r31 18 19 0.921778
r32 16 19 1.89833
r33 14 19 8.27089
r34 14 15 109.615
r35 10 15 5.58729
r36 10 12 201.923
r37 8 19 8.27089
r38 8 9 86.1538
r39 4 9 5.58729
r40 4 6 174.615
.ends

.subckt PM_REG_X9_X2_7 6 12 16 18
r0 54 56 0.0475
r1 41 62 0.0338756
r2 41 42 1.705
r3 40 62 0.0338756
r4 39 59 0.0517569
r5 39 40 1.0625
r6 37 56 0.0046983
r7 37 38 0.77
r8 32 38 0.0458784
r9 32 34 0.209231
r10 31 54 0.0046983
r11 30 52 0.0517569
r12 30 31 0.11
r13 29 52 0.0517569
r14 28 29 0.9075
r15 27 48 0.0517569
r16 26 62 0.00880368
r17 26 27 0.35
r18 25 44 0.0234599
r19 24 42 0.0446983
r20 24 25 0.6525
r21 22 28 0.0446983
r22 22 23 0.625
r23 21 23 0.0446983
r24 20 44 0.0517569
r25 20 21 1.5675
r26 19 59 15.61
r27 19 52 11.07
r28 19 48 11.07
r29 19 44 11.07
r30 19 34 3.8825
r31 18 19 0.921778
r32 16 19 1.89833
r33 14 19 8.27089
r34 14 15 109.615
r35 10 15 5.58729
r36 10 12 201.923
r37 8 19 8.27089
r38 8 9 86.1538
r39 4 9 5.58729
r40 4 6 174.615
.ends

.subckt PM_REG_X9_X3_7 6 12 16 18
r0 54 56 0.0475
r1 41 62 0.0338756
r2 41 42 1.705
r3 40 62 0.0338756
r4 39 59 0.0517569
r5 39 40 1.0625
r6 37 56 0.0046983
r7 37 38 0.77
r8 32 38 0.0458784
r9 32 34 0.209231
r10 31 54 0.0046983
r11 30 52 0.0517569
r12 30 31 0.11
r13 29 52 0.0517569
r14 28 29 0.9075
r15 27 48 0.0517569
r16 26 62 0.00880368
r17 26 27 0.35
r18 25 44 0.0234599
r19 24 42 0.0446983
r20 24 25 0.6525
r21 22 28 0.0446983
r22 22 23 0.625
r23 21 23 0.0446983
r24 20 44 0.0517569
r25 20 21 1.5675
r26 19 59 15.61
r27 19 52 11.07
r28 19 48 11.07
r29 19 44 11.07
r30 19 34 3.8825
r31 18 19 0.921778
r32 16 19 1.89833
r33 14 19 8.27089
r34 14 15 109.615
r35 10 15 5.58729
r36 10 12 201.923
r37 8 19 8.27089
r38 8 9 86.1538
r39 4 9 5.58729
r40 4 6 174.615
.ends

.subckt PM_REG_X9_X4_7 6 12 16 18
r0 54 56 0.0475
r1 41 62 0.0338756
r2 41 42 1.705
r3 40 62 0.0338756
r4 39 59 0.0517569
r5 39 40 1.0625
r6 37 56 0.0046983
r7 37 38 0.77
r8 32 38 0.0458784
r9 32 34 0.209231
r10 31 54 0.0046983
r11 30 52 0.0517569
r12 30 31 0.11
r13 29 52 0.0517569
r14 28 29 0.9075
r15 27 48 0.0517569
r16 26 62 0.00880368
r17 26 27 0.35
r18 25 44 0.0234599
r19 24 42 0.0446983
r20 24 25 0.6525
r21 22 28 0.0446983
r22 22 23 0.625
r23 21 23 0.0446983
r24 20 44 0.0517569
r25 20 21 1.5675
r26 19 59 15.61
r27 19 52 11.07
r28 19 48 11.07
r29 19 44 11.07
r30 19 34 3.8825
r31 18 19 0.921778
r32 16 19 1.89833
r33 14 19 8.27089
r34 14 15 109.615
r35 10 15 5.58729
r36 10 12 201.923
r37 8 19 8.27089
r38 8 9 86.1538
r39 4 9 5.58729
r40 4 6 174.615
.ends

.subckt PM_REG_X9_X5_7 6 12 16 18
r0 54 56 0.0475
r1 41 62 0.0338756
r2 41 42 1.705
r3 40 62 0.0338756
r4 39 59 0.0517569
r5 39 40 1.0625
r6 37 56 0.0046983
r7 37 38 0.77
r8 32 38 0.0458784
r9 32 34 0.209231
r10 31 54 0.0046983
r11 30 52 0.0517569
r12 30 31 0.11
r13 29 52 0.0517569
r14 28 29 0.9075
r15 27 48 0.0517569
r16 26 62 0.00880368
r17 26 27 0.35
r18 25 44 0.0234599
r19 24 42 0.0446983
r20 24 25 0.6525
r21 22 28 0.0446983
r22 22 23 0.625
r23 21 23 0.0446983
r24 20 44 0.0517569
r25 20 21 1.5675
r26 19 59 15.61
r27 19 52 11.07
r28 19 48 11.07
r29 19 44 11.07
r30 19 34 3.8825
r31 18 19 0.921778
r32 16 19 1.89833
r33 14 19 8.27089
r34 14 15 109.615
r35 10 15 5.58729
r36 10 12 201.923
r37 8 19 8.27089
r38 8 9 86.1538
r39 4 9 5.58729
r40 4 6 174.615
.ends

.subckt PM_REG_X9_X6_7 6 12 16 18
r0 54 56 0.0475
r1 41 62 0.0338756
r2 41 42 1.705
r3 40 62 0.0338756
r4 39 59 0.0517569
r5 39 40 1.0625
r6 37 56 0.0046983
r7 37 38 0.77
r8 32 38 0.0458784
r9 32 34 0.209231
r10 31 54 0.0046983
r11 30 52 0.0517569
r12 30 31 0.11
r13 29 52 0.0517569
r14 28 29 0.9075
r15 27 48 0.0517569
r16 26 62 0.00880368
r17 26 27 0.35
r18 25 44 0.0234599
r19 24 42 0.0446983
r20 24 25 0.6525
r21 22 28 0.0446983
r22 22 23 0.625
r23 21 23 0.0446983
r24 20 44 0.0517569
r25 20 21 1.5675
r26 19 59 15.61
r27 19 52 11.07
r28 19 48 11.07
r29 19 44 11.07
r30 19 34 3.8825
r31 18 19 0.921778
r32 16 19 1.89833
r33 14 19 8.27089
r34 14 15 109.615
r35 10 15 5.58729
r36 10 12 201.923
r37 8 19 8.27089
r38 8 9 86.1538
r39 4 9 5.58729
r40 4 6 174.615
.ends

.subckt PM_REG_X0_X0_X20_7 6 12 16 18
r0 54 56 0.0475
r1 41 62 0.0338756
r2 41 42 1.705
r3 40 62 0.0338756
r4 39 59 0.0517569
r5 39 40 1.0625
r6 37 56 0.0046983
r7 37 38 0.77
r8 32 38 0.0458784
r9 32 34 0.209231
r10 31 54 0.0046983
r11 30 52 0.0517569
r12 30 31 0.11
r13 29 52 0.0517569
r14 28 29 0.9075
r15 27 48 0.0517569
r16 26 62 0.00880368
r17 26 27 0.35
r18 25 44 0.0234599
r19 24 42 0.0446983
r20 24 25 0.6525
r21 22 28 0.0446983
r22 22 23 0.625
r23 21 23 0.0446983
r24 20 44 0.0517569
r25 20 21 1.5675
r26 19 59 15.61
r27 19 52 11.07
r28 19 48 11.07
r29 19 44 11.07
r30 19 34 3.8825
r31 18 19 0.921778
r32 16 19 1.89833
r33 14 19 8.27089
r34 14 15 109.615
r35 10 15 5.58729
r36 10 12 201.923
r37 8 19 8.27089
r38 8 9 86.1538
r39 4 9 5.58729
r40 4 6 174.615
.ends

.subckt PM_REG_X0_X1_X20_7 6 12 16 18
r0 54 56 0.0475
r1 41 62 0.0338756
r2 41 42 1.705
r3 40 62 0.0338756
r4 39 59 0.0517569
r5 39 40 1.0625
r6 37 56 0.0046983
r7 37 38 0.77
r8 32 38 0.0458784
r9 32 34 0.209231
r10 31 54 0.0046983
r11 30 52 0.0517569
r12 30 31 0.11
r13 29 52 0.0517569
r14 28 29 0.9075
r15 27 48 0.0517569
r16 26 62 0.00880368
r17 26 27 0.35
r18 25 44 0.0234599
r19 24 42 0.0446983
r20 24 25 0.6525
r21 22 28 0.0446983
r22 22 23 0.625
r23 21 23 0.0446983
r24 20 44 0.0517569
r25 20 21 1.5675
r26 19 59 15.61
r27 19 52 11.07
r28 19 48 11.07
r29 19 44 11.07
r30 19 34 3.8825
r31 18 19 0.921778
r32 16 19 1.89833
r33 14 19 8.27089
r34 14 15 109.615
r35 10 15 5.58729
r36 10 12 201.923
r37 8 19 8.27089
r38 8 9 86.1538
r39 4 9 5.58729
r40 4 6 174.615
.ends

.subckt PM_REG_X1_X0_X20_7 6 12 16 18
r0 54 56 0.0475
r1 41 62 0.0338756
r2 41 42 1.705
r3 40 62 0.0338756
r4 39 59 0.0517569
r5 39 40 1.0625
r6 37 56 0.0046983
r7 37 38 0.77
r8 32 38 0.0458784
r9 32 34 0.209231
r10 31 54 0.0046983
r11 30 52 0.0517569
r12 30 31 0.11
r13 29 52 0.0517569
r14 28 29 0.9075
r15 27 48 0.0517569
r16 26 62 0.00880368
r17 26 27 0.35
r18 25 44 0.0234599
r19 24 42 0.0446983
r20 24 25 0.6525
r21 22 28 0.0446983
r22 22 23 0.625
r23 21 23 0.0446983
r24 20 44 0.0517569
r25 20 21 1.5675
r26 19 59 15.61
r27 19 52 11.07
r28 19 48 11.07
r29 19 44 11.07
r30 19 34 3.8825
r31 18 19 0.921778
r32 16 19 1.89833
r33 14 19 8.27089
r34 14 15 109.615
r35 10 15 5.58729
r36 10 12 201.923
r37 8 19 8.27089
r38 8 9 86.1538
r39 4 9 5.58729
r40 4 6 174.615
.ends

.subckt PM_REG_X1_X1_X20_7 6 12 16 18
r0 54 56 0.0475
r1 41 62 0.0338756
r2 41 42 1.705
r3 40 62 0.0338756
r4 39 59 0.0517569
r5 39 40 1.0625
r6 37 56 0.0046983
r7 37 38 0.77
r8 32 38 0.0458784
r9 32 34 0.209231
r10 31 54 0.0046983
r11 30 52 0.0517569
r12 30 31 0.11
r13 29 52 0.0517569
r14 28 29 0.9075
r15 27 48 0.0517569
r16 26 62 0.00880368
r17 26 27 0.35
r18 25 44 0.0234599
r19 24 42 0.0446983
r20 24 25 0.6525
r21 22 28 0.0446983
r22 22 23 0.625
r23 21 23 0.0446983
r24 20 44 0.0517569
r25 20 21 1.5675
r26 19 59 15.61
r27 19 52 11.07
r28 19 48 11.07
r29 19 44 11.07
r30 19 34 3.8825
r31 18 19 0.921778
r32 16 19 1.89833
r33 14 19 8.27089
r34 14 15 109.615
r35 10 15 5.58729
r36 10 12 201.923
r37 8 19 8.27089
r38 8 9 86.1538
r39 4 9 5.58729
r40 4 6 174.615
.ends

.subckt PM_REG_X2_X0_X20_7 6 12 16 18
r0 54 56 0.0475
r1 41 62 0.0338756
r2 41 42 1.705
r3 40 62 0.0338756
r4 39 59 0.0517569
r5 39 40 1.0625
r6 37 56 0.0046983
r7 37 38 0.77
r8 32 38 0.0458784
r9 32 34 0.209231
r10 31 54 0.0046983
r11 30 52 0.0517569
r12 30 31 0.11
r13 29 52 0.0517569
r14 28 29 0.9075
r15 27 48 0.0517569
r16 26 62 0.00880368
r17 26 27 0.35
r18 25 44 0.0234599
r19 24 42 0.0446983
r20 24 25 0.6525
r21 22 28 0.0446983
r22 22 23 0.625
r23 21 23 0.0446983
r24 20 44 0.0517569
r25 20 21 1.5675
r26 19 59 15.61
r27 19 52 11.07
r28 19 48 11.07
r29 19 44 11.07
r30 19 34 3.8825
r31 18 19 0.921778
r32 16 19 1.89833
r33 14 19 8.27089
r34 14 15 109.615
r35 10 15 5.58729
r36 10 12 201.923
r37 8 19 8.27089
r38 8 9 86.1538
r39 4 9 5.58729
r40 4 6 174.615
.ends

.subckt PM_REG_X2_X1_X20_7 6 12 16 18
r0 54 56 0.0475
r1 41 62 0.0338756
r2 41 42 1.705
r3 40 62 0.0338756
r4 39 59 0.0517569
r5 39 40 1.0625
r6 37 56 0.0046983
r7 37 38 0.77
r8 32 38 0.0458784
r9 32 34 0.209231
r10 31 54 0.0046983
r11 30 52 0.0517569
r12 30 31 0.11
r13 29 52 0.0517569
r14 28 29 0.9075
r15 27 48 0.0517569
r16 26 62 0.00880368
r17 26 27 0.35
r18 25 44 0.0234599
r19 24 42 0.0446983
r20 24 25 0.6525
r21 22 28 0.0446983
r22 22 23 0.625
r23 21 23 0.0446983
r24 20 44 0.0517569
r25 20 21 1.5675
r26 19 59 15.61
r27 19 52 11.07
r28 19 48 11.07
r29 19 44 11.07
r30 19 34 3.8825
r31 18 19 0.921778
r32 16 19 1.89833
r33 14 19 8.27089
r34 14 15 109.615
r35 10 15 5.58729
r36 10 12 201.923
r37 8 19 8.27089
r38 8 9 86.1538
r39 4 9 5.58729
r40 4 6 174.615
.ends

.subckt PM_REG_X3_X0_X20_7 6 12 16 18
r0 54 56 0.0475
r1 41 62 0.0338756
r2 41 42 1.705
r3 40 62 0.0338756
r4 39 59 0.0517569
r5 39 40 1.0625
r6 37 56 0.0046983
r7 37 38 0.77
r8 32 38 0.0458784
r9 32 34 0.209231
r10 31 54 0.0046983
r11 30 52 0.0517569
r12 30 31 0.11
r13 29 52 0.0517569
r14 28 29 0.9075
r15 27 48 0.0517569
r16 26 62 0.00880368
r17 26 27 0.35
r18 25 44 0.0234599
r19 24 42 0.0446983
r20 24 25 0.6525
r21 22 28 0.0446983
r22 22 23 0.625
r23 21 23 0.0446983
r24 20 44 0.0517569
r25 20 21 1.5675
r26 19 59 15.61
r27 19 52 11.07
r28 19 48 11.07
r29 19 44 11.07
r30 19 34 3.8825
r31 18 19 0.921778
r32 16 19 1.89833
r33 14 19 8.27089
r34 14 15 109.615
r35 10 15 5.58729
r36 10 12 201.923
r37 8 19 8.27089
r38 8 9 86.1538
r39 4 9 5.58729
r40 4 6 174.615
.ends

.subckt PM_REG_X3_X1_X20_7 6 12 16 18
r0 54 56 0.0475
r1 41 62 0.0338756
r2 41 42 1.705
r3 40 62 0.0338756
r4 39 59 0.0517569
r5 39 40 1.0625
r6 37 56 0.0046983
r7 37 38 0.77
r8 32 38 0.0458784
r9 32 34 0.209231
r10 31 54 0.0046983
r11 30 52 0.0517569
r12 30 31 0.11
r13 29 52 0.0517569
r14 28 29 0.9075
r15 27 48 0.0517569
r16 26 62 0.00880368
r17 26 27 0.35
r18 25 44 0.0234599
r19 24 42 0.0446983
r20 24 25 0.6525
r21 22 28 0.0446983
r22 22 23 0.625
r23 21 23 0.0446983
r24 20 44 0.0517569
r25 20 21 1.5675
r26 19 59 15.61
r27 19 52 11.07
r28 19 48 11.07
r29 19 44 11.07
r30 19 34 3.8825
r31 18 19 0.921778
r32 16 19 1.89833
r33 14 19 8.27089
r34 14 15 109.615
r35 10 15 5.58729
r36 10 12 201.923
r37 8 19 8.27089
r38 8 9 86.1538
r39 4 9 5.58729
r40 4 6 174.615
.ends

.subckt PM_REG_X0_X0_7 6 12 16 22 24
r0 70 71 0.952
r1 68 69 0.098
r2 66 67 0.536
r3 64 65 0.096
r4 62 63 0.592
r5 60 65 0.0446983
r6 60 61 0.42
r7 59 63 0.0446983
r8 58 61 0.0446983
r9 58 59 1.044
r10 55 56 0.13
r11 43 45 0.1425
r12 42 56 0.0046983
r13 41 42 0.8125
r14 40 52 0.0517569
r15 39 55 0.0046983
r16 39 40 0.3275
r17 38 48 0.0517569
r18 37 55 0.04
r19 37 38 0.2775
r20 36 45 0.0046983
r21 35 93 0.0559551
r22 35 36 0.8925
r23 33 41 0.0446983
r24 33 34 0.8025
r25 32 34 0.0446983
r26 31 43 0.0046983
r27 31 32 1.8475
r28 30 120 8.27089
r29 30 97 11.07
r30 30 70 0.0477743
r31 30 97 0.68
r32 29 71 0.0477743
r33 29 68 0.0477743
r34 29 93 0.68
r35 29 52 15.53
r36 29 48 11.07
r37 28 107 6.83333
r38 28 88 11.07
r39 28 66 0.0477743
r40 28 88 0.68
r41 27 83 11.07
r42 27 69 0.0477743
r43 27 83 0.68
r44 26 67 0.0477743
r45 26 62 0.0477743
r46 25 126 15.61
r47 25 64 0.0477743
r48 25 126 0.68
r49 24 29 2.074
r50 22 25 2.12167
r51 20 120 318.077
r52 18 20 5.58729
r53 18 19 19.2308
r54 14 19 5.58729
r55 14 16 108.462
r56 10 29 8.27089
r57 10 12 55
r58 9 27 8.27089
r59 8 107 4.63979
r60 8 9 167.308
r61 4 107 4.63979
r62 4 6 246.154
.ends

.subckt PM_REG_X0_X0_10 8 20 24 38 40
r0 76 78 0.01875
r1 72 74 0.135
r2 67 70 0.0517569
r3 60 93 0.0517569
r4 60 61 0.495
r5 59 81 0.0517569
r6 58 89 0.0517569
r7 58 59 0.355
r8 56 61 0.0446983
r9 56 57 0.685
r10 55 76 0.0228659
r11 54 74 0.0046983
r12 54 55 0.125
r13 52 85 0.0517569
r14 52 53 0.4425
r15 51 72 0.0046983
r16 50 53 0.0446983
r17 50 51 0.435
r18 49 71 0.0338756
r19 48 57 0.0446983
r20 48 49 0.7825
r21 47 71 0.00880368
r22 47 70 1.7975
r23 45 63 0.0517569
r24 44 71 0.0338756
r25 44 45 0.84
r26 43 109 6.66667
r27 43 98 4.0493
r28 43 93 11.07
r29 43 67 15.61
r30 43 63 11.07
r31 42 108 6.25
r32 42 89 11.07
r33 42 81 11.07
r34 41 85 11.07
r35 41 78 15.53
r36 40 41 2.318
r37 38 43 2.12167
r38 34 36 12.6923
r39 30 32 8.84615
r40 29 108 4.00993
r41 28 109 4.63979
r42 28 29 472.692
r43 27 109 4.63979
r44 26 36 0.587288
r45 26 27 7.69231
r46 22 34 0.587288
r47 22 24 145.769
r48 18 41 8.27089
r49 18 20 103.077
r50 17 41 8.27089
r51 16 17 36.1538
r52 14 16 5.58729
r53 14 15 74.2308
r54 12 42 8.27089
r55 12 13 54.6154
r56 11 15 5.58729
r57 10 13 5.58729
r58 10 11 255
r59 6 32 0.587288
r60 6 8 87.3077
r61 5 98 4.36847
r62 4 30 0.587288
r63 4 5 183.846
.ends

.subckt PM_REG_X0_X0_11 5 19 21 22 24
r0 70 71 1.442
r1 68 77 1.45
r2 64 66 0.155
r3 52 55 0.0517569
r4 45 66 0.0046983
r5 44 45 0.415
r6 43 61 0.0517569
r7 42 64 0.0046983
r8 42 43 0.12
r9 41 57 0.0517569
r10 40 44 0.0446983
r11 40 41 0.4325
r12 39 55 0.29
r13 37 50 0.0338756
r14 36 39 0.0446983
r15 36 37 0.135
r16 35 90 0.0559551
r17 34 50 0.00880368
r18 34 35 0.12
r19 32 50 0.0338756
r20 32 33 0.165
r21 31 33 0.0446983
r22 30 47 0.0517569
r23 30 31 0.29
r24 29 61 15.53
r25 29 57 11.07
r26 28 68 0.0477743
r27 28 90 0.68
r28 28 52 15.61
r29 28 47 15.61
r30 27 85 11.07
r31 27 70 0.0477743
r32 27 85 0.68
r33 26 74 11.07
r34 26 77 0.0477743
r35 26 74 0.68
r36 25 80 11.07
r37 25 71 0.0477743
r38 25 80 0.68
r39 24 29 2.074
r40 22 28 2.12167
r41 21 28 1.89833
r42 17 29 8.27089
r43 17 19 99.2308
r44 16 29 8.27089
r45 15 16 271.154
r46 13 15 5.58729
r47 13 14 86.1538
r48 12 14 5.58729
r49 11 12 196.154
r50 10 27 8.27089
r51 9 11 5.58729
r52 9 10 21.5385
r53 8 25 8.27089
r54 7 26 8.27089
r55 7 8 381.154
r56 3 26 8.27089
r57 3 5 82.6923
.ends

.subckt PM_REG_X0_X0_14 6 12 14
r0 49 70 0.0374532
r1 40 41 1.804
r2 36 39 0.0517569
r3 31 33 0.15
r4 26 39 0.335
r5 23 26 0.0446983
r6 23 24 0.0825
r7 22 70 0.024479
r8 21 24 0.0446983
r9 21 22 2.96
r10 20 33 0.0046983
r11 19 44 0.0559551
r12 19 20 0.8025
r13 18 28 0.0517569
r14 17 31 0.0046983
r15 17 18 2.6375
r16 16 40 0.0477743
r17 16 49 0.68
r18 16 36 15.61
r19 15 44 11.07
r20 15 41 0.0477743
r21 15 44 0.68
r22 15 28 15.53
r23 14 15 2.318
r24 12 16 2.12167
r25 8 10 10.3846
r26 4 10 0.587288
r27 4 6 60
r28 3 15 8.27089
r29 2 8 0.587288
r30 2 3 458.846
.ends

.subckt PM_REG_X0_X0_15 8 16 34 36
r0 59 60 2.128
r1 55 58 0.0517569
r2 51 53 0.0459574
r3 45 68 0.0559551
r4 45 58 3.6275
r5 43 53 0.0195926
r6 42 43 1.08
r7 41 47 0.0517569
r8 40 42 0.0446983
r9 40 41 0.11
r10 39 59 0.0477743
r11 39 68 0.68
r12 39 55 15.61
r13 38 51 15.53
r14 38 47 11.07
r15 37 76 0.457317
r16 37 63 11.07
r17 37 60 0.0477743
r18 37 63 0.68
r19 36 38 2.074
r20 34 39 1.89833
r21 30 32 6.53846
r22 26 28 14.2308
r23 24 37 8.34456
r24 24 25 293.846
r25 23 76 7.88725
r26 22 23 13.8462
r27 20 22 5.58729
r28 20 21 11.1538
r29 18 25 5.58729
r30 18 19 12.6923
r31 14 21 5.58729
r32 14 16 543.846
r33 13 38 8.27089
r34 12 19 5.58729
r35 12 13 14.6154
r36 10 76 5.08593
r37 10 11 94.2308
r38 6 28 0.587288
r39 6 8 147.692
r40 5 11 5.58729
r41 4 32 0.587288
r42 4 5 305.385
r43 3 30 0.587288
r44 2 26 0.587288
r45 2 3 100
.ends

.subckt PM_REG_X0_X0_16 1 3 62 68 72
r0 111 116 0.0477743
r1 111 112 1.768
r2 110 112 0.0446983
r3 109 110 0.864
r4 92 98 0.0338756
r5 91 92 1.304
r6 90 99 0.0178972
r7 89 98 0.00880368
r8 89 90 0.698
r9 87 98 0.0338756
r10 87 88 0.894
r11 85 102 0.0559551
r12 85 86 1.58
r13 83 86 0.0446983
r14 83 84 2.055
r15 81 84 0.0446983
r16 81 82 0.3425
r17 80 141 0.0559551
r18 79 82 0.0446983
r19 79 80 0.77
r20 78 106 11.07
r21 78 91 0.0477743
r22 78 106 0.68
r23 77 141 0.68
r24 77 141 11.07
r25 77 116 0.68
r26 77 99 0.0313167
r27 77 102 0.68
r28 76 128 4.25532
r29 76 95 11.07
r30 76 88 0.0477743
r31 76 95 0.68
r32 74 75 10
r33 70 78 8.27089
r34 70 72 198.077
r35 66 68 61.9231
r36 65 128 4.33363
r37 65 75 110.769
r38 62 74 77.3077
r39 58 66 5.58729
r40 58 59 145.769
r41 57 59 5.58729
r42 56 77 8.27089
r43 56 57 192.692
r44 45 47 0.0687543
r45 32 109 0.0477743
r46 28 31 0.0517569
r47 22 24 0.125
r48 18 20 0.1275
r49 17 24 0.0046983
r50 17 31 3.81
r51 11 26 0.0517569
r52 11 13 0.209231
r53 9 20 0.0046983
r54 9 26 1.4825
r55 7 22 0.0046983
r56 7 47 0.12
r57 6 18 0.0046983
r58 5 45 0.0707543
r59 5 6 0.825
r60 4 45 0.68
r61 4 32 0.68
r62 4 28 15.61
r63 4 13 3.8825
r64 3 4 1.03564
r65 1 4 2.13283
.ends

.subckt PM_REG_X0_X1_7 6 12 16 22 24
r0 70 71 0.952
r1 68 69 0.098
r2 66 67 0.536
r3 64 65 0.096
r4 62 63 0.592
r5 60 65 0.0446983
r6 60 61 0.42
r7 59 63 0.0446983
r8 58 61 0.0446983
r9 58 59 1.044
r10 55 56 0.13
r11 43 45 0.1425
r12 42 56 0.0046983
r13 41 42 0.8125
r14 40 52 0.0517569
r15 39 55 0.0046983
r16 39 40 0.3275
r17 38 48 0.0517569
r18 37 55 0.04
r19 37 38 0.2775
r20 36 45 0.0046983
r21 35 93 0.0559551
r22 35 36 0.8925
r23 33 41 0.0446983
r24 33 34 0.8025
r25 32 34 0.0446983
r26 31 43 0.0046983
r27 31 32 1.8475
r28 30 120 8.27089
r29 30 97 11.07
r30 30 70 0.0477743
r31 30 97 0.68
r32 29 71 0.0477743
r33 29 68 0.0477743
r34 29 93 0.68
r35 29 52 15.53
r36 29 48 11.07
r37 28 107 6.83333
r38 28 88 11.07
r39 28 66 0.0477743
r40 28 88 0.68
r41 27 83 11.07
r42 27 69 0.0477743
r43 27 83 0.68
r44 26 67 0.0477743
r45 26 62 0.0477743
r46 25 126 15.61
r47 25 64 0.0477743
r48 25 126 0.68
r49 24 29 2.074
r50 22 25 2.12167
r51 20 120 318.077
r52 18 20 5.58729
r53 18 19 19.2308
r54 14 19 5.58729
r55 14 16 108.462
r56 10 29 8.27089
r57 10 12 55
r58 9 27 8.27089
r59 8 107 4.63979
r60 8 9 167.308
r61 4 107 4.63979
r62 4 6 246.154
.ends

.subckt PM_REG_X0_X1_10 8 20 24 38 40
r0 76 78 0.01875
r1 72 74 0.135
r2 67 70 0.0517569
r3 60 93 0.0517569
r4 60 61 0.495
r5 59 81 0.0517569
r6 58 89 0.0517569
r7 58 59 0.355
r8 56 61 0.0446983
r9 56 57 0.685
r10 55 76 0.0228659
r11 54 74 0.0046983
r12 54 55 0.125
r13 52 85 0.0517569
r14 52 53 0.4425
r15 51 72 0.0046983
r16 50 53 0.0446983
r17 50 51 0.435
r18 49 71 0.0338756
r19 48 57 0.0446983
r20 48 49 0.7825
r21 47 71 0.00880368
r22 47 70 1.7975
r23 45 63 0.0517569
r24 44 71 0.0338756
r25 44 45 0.84
r26 43 109 6.66667
r27 43 98 4.0493
r28 43 93 11.07
r29 43 67 15.61
r30 43 63 11.07
r31 42 108 6.25
r32 42 89 11.07
r33 42 81 11.07
r34 41 85 11.07
r35 41 78 15.53
r36 40 41 2.318
r37 38 43 2.12167
r38 34 36 12.6923
r39 30 32 8.84615
r40 29 108 4.00993
r41 28 109 4.63979
r42 28 29 472.692
r43 27 109 4.63979
r44 26 36 0.587288
r45 26 27 7.69231
r46 22 34 0.587288
r47 22 24 145.769
r48 18 41 8.27089
r49 18 20 103.077
r50 17 41 8.27089
r51 16 17 36.1538
r52 14 16 5.58729
r53 14 15 74.2308
r54 12 42 8.27089
r55 12 13 54.6154
r56 11 15 5.58729
r57 10 13 5.58729
r58 10 11 255
r59 6 32 0.587288
r60 6 8 87.3077
r61 5 98 4.36847
r62 4 30 0.587288
r63 4 5 183.846
.ends

.subckt PM_REG_X0_X1_11 5 19 21 22 24
r0 70 71 1.442
r1 68 77 1.45
r2 64 66 0.155
r3 52 55 0.0517569
r4 45 66 0.0046983
r5 44 45 0.415
r6 43 61 0.0517569
r7 42 64 0.0046983
r8 42 43 0.12
r9 41 57 0.0517569
r10 40 44 0.0446983
r11 40 41 0.4325
r12 39 55 0.29
r13 37 50 0.0338756
r14 36 39 0.0446983
r15 36 37 0.135
r16 35 90 0.0559551
r17 34 50 0.00880368
r18 34 35 0.12
r19 32 50 0.0338756
r20 32 33 0.165
r21 31 33 0.0446983
r22 30 47 0.0517569
r23 30 31 0.29
r24 29 61 15.53
r25 29 57 11.07
r26 28 68 0.0477743
r27 28 90 0.68
r28 28 52 15.61
r29 28 47 15.61
r30 27 85 11.07
r31 27 70 0.0477743
r32 27 85 0.68
r33 26 74 11.07
r34 26 77 0.0477743
r35 26 74 0.68
r36 25 80 11.07
r37 25 71 0.0477743
r38 25 80 0.68
r39 24 29 2.074
r40 22 28 2.12167
r41 21 28 1.89833
r42 17 29 8.27089
r43 17 19 99.2308
r44 16 29 8.27089
r45 15 16 271.154
r46 13 15 5.58729
r47 13 14 86.1538
r48 12 14 5.58729
r49 11 12 196.154
r50 10 27 8.27089
r51 9 11 5.58729
r52 9 10 21.5385
r53 8 25 8.27089
r54 7 26 8.27089
r55 7 8 381.154
r56 3 26 8.27089
r57 3 5 82.6923
.ends

.subckt PM_REG_X0_X1_14 6 12 14
r0 49 70 0.0374532
r1 40 41 1.804
r2 36 39 0.0517569
r3 31 33 0.15
r4 26 39 0.335
r5 23 26 0.0446983
r6 23 24 0.0825
r7 22 70 0.024479
r8 21 24 0.0446983
r9 21 22 2.96
r10 20 33 0.0046983
r11 19 44 0.0559551
r12 19 20 0.8025
r13 18 28 0.0517569
r14 17 31 0.0046983
r15 17 18 2.6375
r16 16 40 0.0477743
r17 16 49 0.68
r18 16 36 15.61
r19 15 44 11.07
r20 15 41 0.0477743
r21 15 44 0.68
r22 15 28 15.53
r23 14 15 2.318
r24 12 16 2.12167
r25 8 10 10.3846
r26 4 10 0.587288
r27 4 6 60
r28 3 15 8.27089
r29 2 8 0.587288
r30 2 3 458.846
.ends

.subckt PM_REG_X0_X1_15 8 16 34 36
r0 59 60 2.128
r1 55 58 0.0517569
r2 51 53 0.0459574
r3 45 68 0.0559551
r4 45 58 3.6275
r5 43 53 0.0195926
r6 42 43 1.08
r7 41 47 0.0517569
r8 40 42 0.0446983
r9 40 41 0.11
r10 39 59 0.0477743
r11 39 68 0.68
r12 39 55 15.61
r13 38 51 15.53
r14 38 47 11.07
r15 37 76 0.457317
r16 37 63 11.07
r17 37 60 0.0477743
r18 37 63 0.68
r19 36 38 2.074
r20 34 39 1.89833
r21 30 32 6.53846
r22 26 28 14.2308
r23 24 37 8.34456
r24 24 25 293.846
r25 23 76 7.88725
r26 22 23 13.8462
r27 20 22 5.58729
r28 20 21 11.1538
r29 18 25 5.58729
r30 18 19 12.6923
r31 14 21 5.58729
r32 14 16 543.846
r33 13 38 8.27089
r34 12 19 5.58729
r35 12 13 14.6154
r36 10 76 5.08593
r37 10 11 94.2308
r38 6 28 0.587288
r39 6 8 147.692
r40 5 11 5.58729
r41 4 32 0.587288
r42 4 5 305.385
r43 3 30 0.587288
r44 2 26 0.587288
r45 2 3 100
.ends

.subckt PM_REG_X0_X1_16 1 3 62 68 72
r0 111 116 0.0477743
r1 111 112 1.768
r2 110 112 0.0446983
r3 109 110 0.864
r4 92 98 0.0338756
r5 91 92 1.304
r6 90 99 0.0178972
r7 89 98 0.00880368
r8 89 90 0.698
r9 87 98 0.0338756
r10 87 88 0.894
r11 85 102 0.0559551
r12 85 86 1.58
r13 83 86 0.0446983
r14 83 84 2.055
r15 81 84 0.0446983
r16 81 82 0.3425
r17 80 141 0.0559551
r18 79 82 0.0446983
r19 79 80 0.77
r20 78 106 11.07
r21 78 91 0.0477743
r22 78 106 0.68
r23 77 141 0.68
r24 77 141 11.07
r25 77 116 0.68
r26 77 99 0.0313167
r27 77 102 0.68
r28 76 128 4.25532
r29 76 95 11.07
r30 76 88 0.0477743
r31 76 95 0.68
r32 74 75 10
r33 70 78 8.27089
r34 70 72 198.077
r35 66 68 61.9231
r36 65 128 4.33363
r37 65 75 110.769
r38 62 74 77.3077
r39 58 66 5.58729
r40 58 59 145.769
r41 57 59 5.58729
r42 56 77 8.27089
r43 56 57 192.692
r44 45 47 0.0687543
r45 32 109 0.0477743
r46 28 31 0.0517569
r47 22 24 0.125
r48 18 20 0.1275
r49 17 24 0.0046983
r50 17 31 3.81
r51 11 26 0.0517569
r52 11 13 0.209231
r53 9 20 0.0046983
r54 9 26 1.4825
r55 7 22 0.0046983
r56 7 47 0.12
r57 6 18 0.0046983
r58 5 45 0.0707543
r59 5 6 0.825
r60 4 45 0.68
r61 4 32 0.68
r62 4 28 15.61
r63 4 13 3.8825
r64 3 4 1.03564
r65 1 4 2.13283
.ends

.subckt PM_REG_X1_X0_7 6 12 16 22 24
r0 70 71 0.952
r1 68 69 0.098
r2 66 67 0.536
r3 64 65 0.096
r4 62 63 0.592
r5 60 65 0.0446983
r6 60 61 0.42
r7 59 63 0.0446983
r8 58 61 0.0446983
r9 58 59 1.044
r10 55 56 0.13
r11 43 45 0.1425
r12 42 56 0.0046983
r13 41 42 0.8125
r14 40 52 0.0517569
r15 39 55 0.0046983
r16 39 40 0.3275
r17 38 48 0.0517569
r18 37 55 0.04
r19 37 38 0.2775
r20 36 45 0.0046983
r21 35 93 0.0559551
r22 35 36 0.8925
r23 33 41 0.0446983
r24 33 34 0.8025
r25 32 34 0.0446983
r26 31 43 0.0046983
r27 31 32 1.8475
r28 30 120 8.27089
r29 30 97 11.07
r30 30 70 0.0477743
r31 30 97 0.68
r32 29 71 0.0477743
r33 29 68 0.0477743
r34 29 93 0.68
r35 29 52 15.53
r36 29 48 11.07
r37 28 107 6.83333
r38 28 88 11.07
r39 28 66 0.0477743
r40 28 88 0.68
r41 27 83 11.07
r42 27 69 0.0477743
r43 27 83 0.68
r44 26 67 0.0477743
r45 26 62 0.0477743
r46 25 126 15.61
r47 25 64 0.0477743
r48 25 126 0.68
r49 24 29 2.074