* File: alu.pex.netlist.pex
* Created: Mon Apr 15 14:11:22 2019
* Program "Calibre xRC"
* Version "v2012.2_36.25"
* Nominal Temperature: 27C
* Circuit Temperature: 27C
* 
.subckt PM_ALU_X42_7 6 12 16 18
r0 54 56 0.0475
r1 41 62 0.0338756
r2 41 42 1.705
r3 40 62 0.0338756
r4 39 59 0.0517569
r5 39 40 1.0625
r6 37 56 0.0046983
r7 37 38 0.77
r8 32 38 0.0458784
r9 32 34 0.209231
r10 31 54 0.0046983
r11 30 52 0.0517569
r12 30 31 0.11
r13 29 52 0.0517569
r14 28 29 0.9075
r15 27 48 0.0517569
r16 26 62 0.00880368
r17 26 27 0.35
r18 25 44 0.0234599
r19 24 42 0.0446983
r20 24 25 0.6525
r21 22 28 0.0446983
r22 22 23 0.625
r23 21 23 0.0446983
r24 20 44 0.0517569
r25 20 21 1.5675
r26 19 59 15.61
r27 19 52 11.07
r28 19 48 11.07
r29 19 44 11.07
r30 19 34 3.8825
r31 18 19 0.921778
r32 16 19 1.89833
r33 14 19 8.27089
r34 14 15 109.615
r35 10 15 5.58729
r36 10 12 201.923
r37 8 19 8.27089
r38 8 9 86.1538
r39 4 9 5.58729
r40 4 6 174.615
.ends

.subckt PM_ALU_X43_7 6 12 16 18
r0 54 56 0.0475
r1 41 62 0.0338756
r2 41 42 1.705
r3 40 62 0.0338756
r4 39 59 0.0517569
r5 39 40 1.0625
r6 37 56 0.0046983
r7 37 38 0.77
r8 32 38 0.0458784
r9 32 34 0.209231
r10 31 54 0.0046983
r11 30 52 0.0517569
r12 30 31 0.11
r13 29 52 0.0517569
r14 28 29 0.9075
r15 27 48 0.0517569
r16 26 62 0.00880368
r17 26 27 0.35
r18 25 44 0.0234599
r19 24 42 0.0446983
r20 24 25 0.6525
r21 22 28 0.0446983
r22 22 23 0.625
r23 21 23 0.0446983
r24 20 44 0.0517569
r25 20 21 1.5675
r26 19 59 15.61
r27 19 52 11.07
r28 19 48 11.07
r29 19 44 11.07
r30 19 34 3.8825
r31 18 19 0.921778
r32 16 19 1.89833
r33 14 19 8.27089
r34 14 15 109.615
r35 10 15 5.58729
r36 10 12 201.923
r37 8 19 8.27089
r38 8 9 86.1538
r39 4 9 5.58729
r40 4 6 174.615
.ends

.subckt PM_ALU_X44_7 6 12 16 18
r0 54 56 0.0475
r1 41 62 0.0338756
r2 41 42 1.705
r3 40 62 0.0338756
r4 39 59 0.0517569
r5 39 40 1.0625
r6 37 56 0.0046983
r7 37 38 0.77
r8 32 38 0.0458784
r9 32 34 0.209231
r10 31 54 0.0046983
r11 30 52 0.0517569
r12 30 31 0.11
r13 29 52 0.0517569
r14 28 29 0.9075
r15 27 48 0.0517569
r16 26 62 0.00880368
r17 26 27 0.35
r18 25 44 0.0234599
r19 24 42 0.0446983
r20 24 25 0.6525
r21 22 28 0.0446983
r22 22 23 0.625
r23 21 23 0.0446983
r24 20 44 0.0517569
r25 20 21 1.5675
r26 19 59 15.61
r27 19 52 11.07
r28 19 48 11.07
r29 19 44 11.07
r30 19 34 3.8825
r31 18 19 0.921778
r32 16 19 1.89833
r33 14 19 8.27089
r34 14 15 109.615
r35 10 15 5.58729
r36 10 12 201.923
r37 8 19 8.27089
r38 8 9 86.1538
r39 4 9 5.58729
r40 4 6 174.615
.ends

.subckt PM_ALU_X45_7 6 12 16 18
r0 54 56 0.0475
r1 41 62 0.0338756
r2 41 42 1.705
r3 40 62 0.0338756
r4 39 59 0.0517569
r5 39 40 1.0625
r6 37 56 0.0046983
r7 37 38 0.77
r8 32 38 0.0458784
r9 32 34 0.209231
r10 31 54 0.0046983
r11 30 52 0.0517569
r12 30 31 0.11
r13 29 52 0.0517569
r14 28 29 0.9075
r15 27 48 0.0517569
r16 26 62 0.00880368
r17 26 27 0.35
r18 25 44 0.0234599
r19 24 42 0.0446983
r20 24 25 0.6525
r21 22 28 0.0446983
r22 22 23 0.625
r23 21 23 0.0446983
r24 20 44 0.0517569
r25 20 21 1.5675
r26 19 59 15.61
r27 19 52 11.07
r28 19 48 11.07
r29 19 44 11.07
r30 19 34 3.8825
r31 18 19 0.921778
r32 16 19 1.89833
r33 14 19 8.27089
r34 14 15 109.615
r35 10 15 5.58729
r36 10 12 201.923
r37 8 19 8.27089
r38 8 9 86.1538
r39 4 9 5.58729
r40 4 6 174.615
.ends

.subckt PM_ALU_VDD 1 3 22 24 45 66 124 125 126 127 128 129 130 131 132 193
r0 269 270 0.458
r1 264 265 0.0530667
r2 259 260 0.056
r3 255 256 0.0541333
r4 248 249 0.125436
r5 244 268 0.00419427
r6 243 246 0.102649
r7 242 268 0.0648174
r8 240 278 0.0559551
r9 240 267 0.9175
r10 235 267 0.0506881
r11 235 237 0.313846
r12 231 273 0.0559551
r13 231 232 0.9175
r14 230 265 0.0983827
r15 230 266 0.205
r16 225 266 0.047348
r17 225 227 0.209231
r18 224 232 0.0458784
r19 224 227 0.313846
r20 223 264 0.0983827
r21 223 263 0.205
r22 217 263 0.0461878
r23 217 219 0.209231
r24 215 262 0.00419427
r25 214 268 0.00419427
r26 213 262 0.0648174
r27 209 260 0.00426667
r28 209 211 0.0656
r29 208 264 0.00426667
r30 208 211 0.0898667
r31 207 260 0.0983827
r32 207 261 0.205
r33 201 261 0.0517569
r34 201 203 0.209231
r35 200 259 0.0983827
r36 200 258 0.205
r37 194 258 0.047348
r38 194 196 0.209231
r39 190 256 0.00426667
r40 189 262 0.00419427
r41 189 193 0.0072
r42 188 256 0.0983827
r43 188 257 0.2125
r44 182 257 0.0461878
r45 182 184 0.104615
r46 181 255 0.0983827
r47 181 254 0.2125
r48 175 254 0.0465316
r49 175 177 0.104615
r50 174 253 0.00419427
r51 173 259 0.00426667
r52 173 174 0.185333
r53 172 253 0.0648174
r54 168 252 0.00419427
r55 168 170 0.123253
r56 167 255 0.00426667
r57 167 170 0.0514133
r58 166 252 0.0648174
r59 166 251 0.21
r60 160 251 0.0517569
r61 160 162 0.313846
r62 159 247 0.133802
r63 158 252 0.00419427
r64 158 159 0.0522667
r65 156 248 0.00426667
r66 155 253 0.00419427
r67 154 248 0.0983827
r68 154 250 0.2125
r69 148 250 0.0506881
r70 148 150 0.104615
r71 147 247 0.3875
r72 145 249 0.405
r73 143 147 0.0446983
r74 142 145 0.0446983
r75 142 143 9.1025
r76 136 291 0.0732
r77 136 269 0.0477743
r78 136 278 0.68
r79 136 237 2.58833
r80 132 291 0.6222
r81 126 285 0.916356
r82 125 133 5.41017
r83 124 283 0.916356
r84 76 246 0.2125
r85 70 76 0.0469158
r86 70 72 0.104615
r87 68 243 0.0242667
r88 68 244 0.2072
r89 66 78 0.921778
r90 55 242 0.2125
r91 49 55 0.0469158
r92 49 51 0.104615
r93 47 214 0.0242667
r94 47 215 0.2072
r95 45 57 0.921778
r96 34 213 0.2125
r97 28 34 0.0469158
r98 28 30 0.104615
r99 26 193 0.0170667
r100 26 190 0.218133
r101 24 36 0.921778
r102 22 131 0.6954
r103 22 130 0.6954
r104 22 129 0.69906
r105 22 128 0.69906
r106 22 127 1.03564
r107 22 285 0.108444
r108 22 283 0.108444
r109 22 270 0.0477743
r110 22 273 0.68
r111 22 227 2.58833
r112 22 219 2.58833
r113 22 203 2.58833
r114 22 196 2.58833
r115 22 184 3.8825
r116 22 177 3.8825
r117 22 170 0.177386
r118 22 162 1.94125
r119 22 150 3.8825
r120 22 133 3.89501
r121 22 78 0.108444
r122 22 72 3.8825
r123 22 68 0.325208
r124 22 57 0.108444
r125 22 51 3.8825
r126 22 47 0.325208
r127 22 36 0.108444
r128 22 30 3.8825
r129 22 26 0.325208
r130 15 22 0.108444
r131 13 172 0.2125
r132 9 22 3.8825
r133 7 13 0.0469158
r134 7 9 0.104615
r135 5 155 0.0242667
r136 5 156 0.179733
r137 5 22 0.325208
r138 3 15 0.921778
r139 1 22 17.494
r140 1 211 0.121953
.ends

.subckt PM_ALU_GROUND 1 2 21 41 61 109 110 111 112 113 114 115 116 117 167
r0 283 324 0.267592
r1 262 263 0.634
r2 260 261 0.67
r3 256 257 0.161436
r4 241 244 0.0517569
r5 241 243 0.0517569
r6 232 234 0.155
r7 228 230 0.0517569
r8 224 259 0.00419427
r9 223 226 0.102649
r10 222 259 0.0648174
r11 221 222 9.1
r12 219 221 0.0446983
r13 219 257 0.625
r14 218 258 0.00419427
r15 217 259 0.00419427
r16 217 218 0.0965333
r17 216 258 0.0648174
r18 214 256 0.0983827
r19 214 254 0.205
r20 213 275 0.0559551
r21 213 255 1.145
r22 208 255 0.0490438
r23 208 210 0.209231
r24 207 254 0.0497974
r25 207 210 0.313846
r26 206 271 0.0559551
r27 205 206 1.145
r28 200 205 0.0458784
r29 200 202 0.209231
r30 198 253 0.00419427
r31 197 258 0.00419427
r32 196 266 0.0236071
r33 196 252 1.145
r34 194 253 0.0648174
r35 189 252 0.0478379
r36 189 191 0.209231
r37 187 266 0.0808643
r38 187 188 0.345
r39 186 188 0.0446983
r40 186 251 1.1775
r41 180 251 0.0517569
r42 180 182 0.209231
r43 176 250 0.00419427
r44 176 178 0.132
r45 175 256 0.00426667
r46 175 178 0.224267
r47 173 250 0.0648174
r48 173 249 0.205
r49 168 249 0.0497974
r50 168 170 0.313846
r51 164 247 0.00419427
r52 163 253 0.00419427
r53 163 167 0.0088
r54 158 248 0.0517569
r55 158 160 0.104615
r56 156 247 0.0648174
r57 156 248 0.26
r58 155 246 0.00419427
r59 154 250 0.00419427
r60 154 155 0.173333
r61 153 246 0.0648174
r62 149 245 0.00419427
r63 149 151 0.09792
r64 148 247 0.00419427
r65 148 151 0.0994133
r66 146 245 0.0648174
r67 146 243 0.28
r68 145 244 1.955
r69 143 234 0.0046983
r70 142 237 0.0517569
r71 142 143 0.3075
r72 140 145 0.0446983
r73 140 141 0.56
r74 139 141 0.0446983
r75 138 232 0.0046983
r76 138 139 1.5675
r77 135 246 0.00419427
r78 133 136 0.102649
r79 133 230 0.28
r80 124 287 0.067
r81 124 263 0.0477743
r82 124 260 0.0477743
r83 124 271 0.68
r84 124 202 2.60167
r85 123 261 0.0477743
r86 123 266 0.68
r87 123 191 2.60167
r88 123 182 2.60167
r89 116 287 0.5695
r90 115 123 0.6365
r91 114 123 0.63985
r92 112 283 3.86097
r93 72 226 0.28
r94 70 72 0.0517569
r95 66 223 0.0258667
r96 66 224 0.100533
r97 52 216 0.28
r98 50 52 0.0517569
r99 46 197 0.0258667
r100 46 198 0.2056
r101 32 194 0.28
r102 30 32 0.0517569
r103 26 167 0.0170667
r104 26 164 0.224267
r105 12 153 0.28
r106 10 12 0.0517569
r107 6 135 0.0258667
r108 6 136 0.1832
r109 2 324 0.215104
r110 2 117 0.6365
r111 2 113 0.63985
r112 2 111 2.13283
r113 2 110 2.1105
r114 2 109 2.1105
r115 2 262 0.0477743
r116 2 275 0.68
r117 2 241 15.61
r118 2 237 15.61
r119 2 228 15.61
r120 2 210 2.60167
r121 2 178 0.121328
r122 2 170 2.60167
r123 2 160 5.20333
r124 2 151 0.176477
r125 2 61 2.12167
r126 2 70 15.61
r127 2 66 0.323542
r128 2 41 2.12167
r129 2 50 15.61
r130 2 46 0.323542
r131 2 21 2.12167
r132 2 30 15.61
r133 2 26 0.323542
r134 2 10 15.61
r135 2 6 0.323542
r136 1 2 2.12167
.ends

.subckt PM_ALU_3 1 3 62 64
r0 97 98 0.168
r1 95 97 0.0446983
r2 95 96 1.1
r3 94 100 0.0477743
r4 93 96 0.0446983
r5 93 94 0.296
r6 89 91 0.085
r7 85 87 0.09
r8 80 83 0.0517569
r9 78 91 0.0046983
r10 77 116 0.0559551
r11 77 78 0.5425
r12 76 116 0.0559551
r13 75 87 0.0046983
r14 75 76 2.7925
r15 73 89 0.0046983
r16 73 84 2.5
r17 72 85 0.0046983
r18 72 83 0.4575
r19 66 84 0.0517569
r20 66 68 0.209231
r21 65 116 0.68
r22 65 100 0.68
r23 65 80 15.61
r24 65 68 3.8825
r25 64 65 0.9272
r26 62 65 1.9095
r27 39 98 0.0477743
r28 27 28 2.312
r29 25 26 0.642
r30 23 28 0.0446983
r31 23 24 0.14
r32 21 24 0.0446983
r33 21 22 0.258
r34 17 20 0.0517569
r35 14 36 0.0559551
r36 14 15 0.18
r37 13 15 0.0446983
r38 13 20 2.255
r39 7 31 0.0393755
r40 7 9 0.141538
r41 6 25 0.0477743
r42 6 36 0.68
r43 6 17 15.61
r44 5 27 0.0477743
r45 5 26 0.0477743
r46 5 39 0.68
r47 4 22 0.0477743
r48 4 31 0.68
r49 4 9 3.8825
r50 3 4 0.9272
r51 1 6 1.9095
.ends

.subckt PM_ALU_4 10 20 33 35
r0 65 68 0.0517569
r1 60 63 0.0514492
r2 55 57 0.145
r3 49 69 0.485
r4 44 69 0.0490438
r5 44 46 0.418462
r6 42 49 0.0446983
r7 42 63 0.465
r8 41 57 0.0046983
r9 41 68 0.525
r10 39 52 0.0517569
r11 38 55 0.0046983
r12 38 39 0.485
r13 37 60 11.07
r14 37 46 1.94125
r15 36 65 15.61
r16 36 52 11.07
r17 35 37 0.4636
r18 33 36 2.13283
r19 29 31 16.5385
r20 24 26 10
r21 22 31 0.587288
r22 22 23 94.6154
r23 18 26 0.587288
r24 18 20 67.6923
r25 17 29 0.587288
r26 16 28 4.23445
r27 16 17 185.769
r28 15 28 4.23445
r29 14 24 0.587288
r30 14 15 316.923
r31 12 23 5.58729
r32 12 13 68.8462
r33 8 37 8.27089
r34 8 10 120
r35 7 37 8.27089
r36 6 13 5.58729
r37 6 7 122.308
r38 4 28 1.10046
r39 4 5 64.6154
r40 3 5 5.58729
r41 2 36 8.27089
r42 2 3 195.385
.ends

.subckt PM_ALU_5 1 3 62 64
r0 119 120 0.68
r1 116 137 0.68
r2 115 116 0.68
r3 112 119 0.0477743
r4 112 113 6.988
r5 111 115 0.0477743
r6 110 113 0.0446983
r7 110 111 0.526
r8 106 120 0.0477743
r9 106 107 0.894
r10 95 137 0.022195
r11 94 95 0.252
r12 92 137 0.0225033
r13 92 93 0.544
r14 90 93 0.0446983
r15 90 91 0.146
r16 86 89 0.0517569
r17 83 103 0.0559551
r18 83 89 2.6875
r19 80 98 0.0559551
r20 80 81 0.6275
r21 75 84 0.0517569
r22 75 77 0.209231
r23 73 84 0.2375
r24 71 73 0.0446983
r25 71 72 0.0875
r26 69 81 0.0446983
r27 69 70 0.0975
r28 68 72 0.0446983
r29 67 70 0.0446983
r30 67 68 1.2625
r31 66 94 0.0480501
r32 66 103 0.68
r33 66 86 15.61
r34 65 122 0.108444
r35 65 91 0.0474984
r36 65 98 0.68
r37 65 77 3.8825
r38 64 122 0.916356
r39 62 66 1.9095
r40 39 107 0.0477743
r41 27 28 2.312
r42 25 26 0.642
r43 23 28 0.0446983
r44 23 24 0.14
r45 21 24 0.0446983
r46 21 22 0.258
r47 17 20 0.0517569
r48 14 36 0.0559551
r49 14 15 0.18
r50 13 15 0.0446983
r51 13 20 2.255
r52 7 31 0.0393755
r53 7 9 0.141538
r54 6 25 0.0477743
r55 6 36 0.68
r56 6 17 15.61
r57 5 27 0.0477743
r58 5 26 0.0477743
r59 5 39 0.68
r60 4 22 0.0477743
r61 4 31 0.68
r62 4 9 3.8825
r63 3 4 0.9272
r64 1 6 1.9095
.ends

.subckt PM_ALU_6 6 10 28 30
r0 78 121 0.017931
r1 69 70 0.146
r2 67 68 0.534
r3 61 63 0.0525
r4 56 66 0.0517569
r5 56 58 0.209231
r6 54 65 0.101866
r7 54 66 0.28
r8 52 121 0.0276608
r9 52 53 0.105
r10 50 51 0.2975
r11 48 65 0.0174182
r12 48 49 0.1175
r13 43 50 0.0458784
r14 43 45 0.104615
r15 42 63 0.0046983
r16 41 53 0.0446983
r17 41 42 0.635
r18 40 49 0.0446983
r19 39 61 0.0046983
r20 39 40 0.2875
r21 37 51 0.0446983
r22 37 38 0.18
r23 36 73 0.0559551
r24 35 38 0.0446983
r25 35 36 0.11
r26 34 88 11.07
r27 34 67 0.0480501
r28 34 88 0.68
r29 33 83 11.07
r30 33 69 0.0480501
r31 33 83 0.68
r32 32 70 0.0474984
r33 32 78 0.68
r34 32 58 3.8825
r35 31 68 0.0474984
r36 31 73 0.68
r37 31 45 5.20333
r38 30 32 1.03564
r39 28 31 1.05525
r40 24 26 7.30769
r41 20 22 18.8462
r42 18 19 634.615
r43 17 34 4.63979
r44 16 18 5.58729
r45 16 17 13.8462
r46 15 26 0.587288
r47 14 22 0.587288
r48 14 15 76.9231
r49 13 33 4.63979
r50 12 19 5.58729
r51 12 13 23.0769
r52 8 24 0.587288
r53 8 10 161.923
r54 4 34 8.27089
r55 4 6 87.6923
r56 3 20 0.587288
r57 2 33 8.27089
r58 2 3 13.8462
.ends

.subckt PM_ALU_8 1 3 66 68
r0 123 124 0.68
r1 119 141 0.68
r2 116 123 0.0477743
r3 116 117 1.56
r4 114 117 0.0446983
r5 114 115 0.206
r6 112 115 0.0446983
r7 112 113 2.594
r8 111 113 0.0446983
r9 110 111 0.09
r10 109 119 0.0474984
r11 108 110 0.0446983
r12 108 109 0.736
r13 104 124 0.0477743
r14 103 104 0.954
r15 101 103 0.0446983
r16 101 102 0.326
r17 100 102 0.0446983
r18 99 100 0.44
r19 97 99 0.0446983
r20 97 107 0.304
r21 93 95 0.11
r22 89 91 0.1325
r23 84 87 0.0517569
r24 82 95 0.0046983
r25 81 137 0.0559551
r26 81 82 0.7025
r27 80 137 0.0559551
r28 79 91 0.0046983
r29 79 80 4.6675
r30 77 93 0.0046983
r31 77 88 0.3225
r32 76 89 0.0046983
r33 76 87 0.3
r34 70 88 0.0517569
r35 70 72 0.209231
r36 69 141 0.68
r37 69 137 0.68
r38 69 84 15.61
r39 69 72 3.8825
r40 68 69 0.9272
r41 66 69 1.9095
r42 58 60 0.0677543
r43 44 107 0.0474984
r44 40 43 0.0517569
r45 34 36 0.0625
r46 30 32 0.0725
r47 26 28 0.0775
r48 22 24 0.1375
r49 21 32 0.0046983
r50 21 43 0.4175
r51 15 38 0.0517569
r52 15 17 0.209231
r53 13 36 0.0046983
r54 13 38 0.2425
r55 12 24 0.0046983
r56 11 58 0.0717543
r57 11 12 0.115
r58 10 34 0.0046983
r59 9 28 0.0046983
r60 9 10 1.8775
r61 7 30 0.0046983
r62 7 60 2.72
r63 6 26 0.0046983
r64 5 22 0.0046983
r65 5 6 0.705
r66 4 58 0.68
r67 4 46 0.108444
r68 4 44 0.68
r69 4 40 15.61
r70 4 17 3.8825
r71 3 46 0.916356
r72 1 4 2.1105
.ends

.subckt PM_ALU_9 9 13 19 20 22
r0 98 150 0.0559551
r1 88 146 0.0481853
r2 84 85 1.024
r3 82 83 0.966
r4 80 81 1.11
r5 76 78 0.0925
r6 71 73 0.055
r7 66 103 0.0559551
r8 66 67 0.32
r9 65 103 0.0559551
r10 64 78 0.0046983
r11 64 65 0.6775
r12 63 76 0.0046983
r13 63 75 1.7025
r14 57 75 0.0506881
r15 57 59 0.209231
r16 56 71 0.0046983
r17 55 67 0.0446983
r18 55 56 0.775
r19 53 70 1.5575
r20 48 70 0.0465316
r21 48 50 0.313846
r22 46 53 0.0446983
r23 46 47 0.1025
r24 45 69 0.0338756
r25 44 73 0.0046983
r26 44 45 0.2
r27 43 47 0.0446983
r28 42 69 0.00880368
r29 42 43 0.7925
r30 40 69 0.0338756
r31 40 41 0.105
r32 39 41 0.0446983
r33 39 150 0.0525
r34 37 68 0.3325
r35 31 68 0.0517569
r36 31 33 0.209231
r37 29 37 0.0446983
r38 29 30 0.1625
r39 28 146 0.0233122
r40 27 30 0.0446983
r41 27 28 2.37
r42 26 107 11.07
r43 26 84 0.0477743
r44 26 107 0.68
r45 25 98 11.07
r46 25 85 0.0477743
r47 25 82 0.0477743
r48 25 103 0.68
r49 25 80 0.0480501
r50 25 98 0.68
r51 25 59 2.60167
r52 25 50 2.58833
r53 24 93 11.07
r54 24 83 0.0474984
r55 24 93 0.68
r56 23 110 0.067
r57 23 81 0.0474984
r58 23 88 0.68
r59 23 33 2.60167
r60 22 25 0.6954
r61 20 25 0.5695
r62 19 110 0.56615
r63 15 17 13.8462
r64 11 26 8.27089
r65 11 13 518.846
r66 7 17 0.587288
r67 7 9 229.231
r68 6 25 8.27089
r69 5 24 8.27089
r70 5 6 26.5385
r71 4 24 8.27089
r72 3 15 0.587288
r73 3 4 214.231
.ends

.subckt PM_ALU_COUT 1 3 65
r0 93 97 0.68
r1 68 97 0.68
r2 65 68 0.189414
r3 59 61 0.0474984
r4 58 93 0.0477743
r5 58 59 0.564
r6 55 87 0.0409091
r7 46 47 0.818
r8 41 43 0.0675
r9 37 39 0.0925
r10 33 35 0.1425
r11 27 45 0.0517569
r12 27 29 0.313846
r13 25 45 0.2625
r14 23 25 0.0446983
r15 23 24 0.135
r16 22 43 0.0046983
r17 21 87 0.0240454
r18 21 22 0.425
r19 20 24 0.0446983
r20 19 41 0.0046983
r21 19 20 0.46
r22 18 50 0.0559551
r23 17 39 0.0046983
r24 17 18 0.11
r25 16 37 0.0046983
r26 15 82 0.0559551
r27 15 16 1.3225
r28 14 82 0.0559551
r29 13 35 0.0046983
r30 13 14 1.0325
r31 12 33 0.0046983
r32 12 32 1.2675
r33 6 32 0.0517569
r34 6 8 0.209231
r35 5 71 0.0732
r36 5 46 0.0477743
r37 5 55 0.68
r38 5 29 2.58833
r39 4 82 0.68
r40 4 61 0.68
r41 4 47 0.0474984
r42 4 50 0.68
r43 4 8 2.60167
r44 3 71 0.6222
r45 1 4 0.57285
.ends

.subckt PM_ALU_13 1 3 65 67 130 132
r0 207 246 0.68
r1 202 205 0.0477743
r2 202 204 0.0477743
r3 202 203 0.68
r4 198 199 0.68
r5 195 207 0.0477743
r6 195 196 1.472
r7 194 205 0.546
r8 191 196 0.0446983
r9 191 204 4.382
r10 190 198 0.0474984
r11 189 194 0.0446983
r12 189 190 0.574
r13 183 203 0.0477743
r14 183 184 1.884
r15 181 199 0.0477743
r16 181 182 1.296
r17 164 165 0.23
r18 162 163 1.638
r19 158 160 0.08
r20 155 178 0.0559551
r21 155 156 1.2
r22 150 156 0.0458784
r23 150 152 0.313846
r24 149 168 0.0559551
r25 148 160 0.0046983
r26 148 149 0.39
r27 147 158 0.0046983
r28 146 147 0.05
r29 144 146 0.0446983
r30 144 145 0.1625
r31 143 145 0.0446983
r32 143 157 2.1125
r33 137 157 0.0478379
r34 137 139 0.209231
r35 136 164 0.0477743
r36 136 178 0.68
r37 136 152 2.58833
r38 135 173 11.07
r39 135 162 0.0477743
r40 135 173 0.68
r41 134 165 0.0477743
r42 134 246 0.68
r43 134 233 0.68
r44 134 215 8.27089
r45 134 233 11.07
r46 133 210 0.067
r47 133 163 0.0477743
r48 133 168 0.68
r49 133 139 2.60167
r50 132 136 0.6222
r51 130 210 0.56615
r52 128 135 8.27089
r53 128 215 197.308
r54 103 184 0.0477743
r55 91 92 2.312
r56 89 90 0.642
r57 87 92 0.0446983
r58 87 88 0.14
r59 85 88 0.0446983
r60 85 86 0.258
r61 81 84 0.0517569
r62 78 100 0.0559551
r63 78 79 0.18
r64 77 79 0.0446983
r65 77 84 2.255
r66 71 95 0.0393755
r67 71 73 0.141538
r68 70 89 0.0477743
r69 70 100 0.68
r70 70 81 15.61
r71 69 91 0.0477743
r72 69 90 0.0477743
r73 69 103 0.68
r74 68 86 0.0477743
r75 68 95 0.68
r76 68 73 3.8825
r77 67 68 0.9272
r78 65 70 1.9095
r79 58 60 0.0677543
r80 44 182 0.0477743
r81 40 43 0.0517569
r82 34 36 0.0625
r83 30 32 0.0725
r84 26 28 0.0775
r85 22 24 0.1375
r86 21 32 0.0046983
r87 21 43 0.4175
r88 15 38 0.0517569
r89 15 17 0.209231
r90 13 36 0.0046983
r91 13 38 0.2425
r92 12 24 0.0046983
r93 11 58 0.0717543
r94 11 12 0.115
r95 10 34 0.0046983
r96 9 28 0.0046983
r97 9 10 1.8775
r98 7 30 0.0046983
r99 7 60 2.72
r100 6 26 0.0046983
r101 5 22 0.0046983
r102 5 6 0.705
r103 4 58 0.68
r104 4 46 0.108444
r105 4 44 0.68
r106 4 40 15.61
r107 4 17 3.8825
r108 3 46 0.916356
r109 1 4 2.1105
.ends

.subckt PM_ALU_14 1 2
r0 20 21 0.304
r1 18 29 0.0559551
r2 18 19 0.685
r3 12 19 0.0483978
r4 12 14 0.209231
r5 11 24 0.0559551
r6 10 11 0.685
r7 5 10 0.0458784
r8 5 7 0.209231
r9 4 20 0.0477743
r10 4 29 0.68
r11 4 14 2.60167
r12 3 21 0.0477743
r13 3 24 0.68
r14 3 7 2.60167
r15 2 4 0.6365
r16 1 3 0.6365
.ends

.subckt PM_ALU_15 1 2
r0 24 25 0.784
r1 22 33 0.0559551
r2 21 22 0.1325
r3 19 21 0.0446983
r4 19 20 0.1
r5 18 20 0.0446983
r6 18 23 0.215
r7 12 23 0.0517569
r8 12 14 0.209231
r9 11 28 0.0559551
r10 10 11 0.4275
r11 5 10 0.0458784
r12 5 7 0.209231
r13 4 24 0.0477743
r14 4 33 0.68
r15 4 14 2.60167
r16 3 25 0.0477743
r17 3 28 0.68
r18 3 7 2.60167
r19 2 4 0.5695
r20 1 3 0.6365
.ends

.subckt PM_ALU_16 5 9 19 25 30 32
r0 68 69 0.654
r1 66 67 1.292
r2 63 64 1.11
r3 62 63 0.08
r4 61 65 1.48
r5 55 65 0.0506881
r6 55 57 0.209231
r7 53 61 0.0446983
r8 53 54 0.1025
r9 52 81 0.0559551
r10 51 54 0.0446983
r11 51 52 0.3775
r12 49 72 0.0562309
r13 49 50 0.155
r14 47 50 0.0446983
r15 47 48 1.82
r16 45 48 0.0446983
r17 45 46 0.1475
r18 40 64 0.0517569
r19 40 42 0.313846
r20 36 46 0.0446983
r21 36 62 0.35
r22 35 68 0.0477743
r23 35 81 0.68
r24 35 57 2.60167
r25 34 95 8.27089
r26 34 77 11.07
r27 34 69 0.0477743
r28 34 66 0.0477743
r29 34 77 0.68
r30 33 72 11.07
r31 33 67 0.0474984
r32 33 72 0.68
r33 33 42 2.58833
r34 32 33 0.69906
r35 30 35 0.6365
r36 27 28 14.6154
r37 23 25 133.077
r38 22 28 0.587288
r39 22 95 268.077
r40 17 34 8.27089
r41 17 19 373.077
r42 15 23 5.58729
r43 15 16 27.6923
r44 14 16 5.58729
r45 13 27 0.587288
r46 13 14 178.077
r47 11 27 5
r48 11 12 66.1538
r49 7 12 5.58729
r50 7 9 321.154
r51 3 33 8.27089
r52 3 5 373.077
.ends

.subckt PM_ALU_19 3 4
r0 22 23 0.64
r1 19 31 0.0559551
r2 19 20 0.92
r3 14 20 0.0458784
r4 14 16 0.313846
r5 9 21 0.0517569
r6 9 11 0.313846
r7 7 26 0.0559551
r8 7 21 0.92
r9 6 22 0.0480501
r10 6 31 0.68
r11 6 16 2.58833
r12 5 34 0.0732
r13 5 23 0.0474984
r14 5 26 0.68
r15 5 11 2.58833
r16 4 6 0.69906
r17 3 34 0.61854
.ends

.subckt PM_ALU_23 4 5 6
r0 37 38 0.308
r1 35 36 0.154
r2 33 36 0.0446983
r3 33 34 0.678
r4 29 49 0.0559551
r5 29 32 1.235
r6 24 32 0.0497974
r7 24 26 0.313846
r8 22 46 0.0559551
r9 22 23 1.235
r10 17 23 0.0458784
r11 17 19 0.313846
r12 15 41 0.0559551
r13 15 31 0.92
r14 10 31 0.0517569
r15 10 12 0.313846
r16 9 37 0.0477743
r17 9 49 0.68
r18 9 26 2.58833
r19 8 35 0.0223492
r20 8 38 0.0223492
r21 8 46 0.68
r22 8 19 2.58833
r23 7 34 0.0477743
r24 7 41 0.68
r25 7 12 2.58833
r26 6 9 0.6222
r27 5 8 0.6954
r28 4 7 0.6222
.ends

.subckt PM_ALU_B 1 3 80 84 94 98 108 114 181
r0 230 234 0.68
r1 184 234 0.68
r2 181 184 0.189414
r3 163 177 0.0477743
r4 163 164 0.26
r5 161 162 0.296
r6 159 164 0.0446983
r7 159 160 1.954
r8 158 173 0.00880368
r9 157 230 0.0480501
r10 157 158 0.876
r11 156 172 0.0338756
r12 155 162 0.0446983
r13 155 156 0.482
r14 154 160 0.0446983
r15 153 170 0.0477743
r16 153 154 1.258
r17 152 170 0.0477743
r18 151 173 0.0338756
r19 151 152 4.674
r20 150 173 0.0338756
r21 149 172 0.00880368
r22 149 150 2.488
r23 147 172 0.0338756
r24 147 148 0.222
r25 146 148 0.0446983
r26 145 166 0.0477743
r27 145 146 0.24
r28 140 142 0.0517569
r29 139 140 0.9075
r30 137 139 0.0446983
r31 137 138 0.3225
r32 136 138 0.0446983
r33 135 136 0.8975
r34 134 192 0.0570585
r35 133 135 0.0446983
r36 133 134 0.295
r37 132 209 0.68
r38 132 201 8.27089
r39 132 209 11.07
r40 132 177 0.68
r41 131 192 0.662564
r42 131 192 11.07
r43 131 170 0.68
r44 131 142 11.07
r45 130 204 0.68
r46 130 204 11.07
r47 130 166 0.68
r48 126 128 10.7692
r49 122 124 17.3077
r50 120 201 471.923
r51 118 132 8.27089
r52 118 119 58.0769
r53 116 120 5.58729
r54 116 117 20
r55 112 128 0.587288
r56 112 114 252.692
r57 110 119 5.58729
r58 110 111 19.6154
r59 106 117 5.58729
r60 106 108 166.923
r61 105 126 0.587288
r62 104 111 5.58729
r63 104 105 48.4615
r64 102 131 8.27089
r65 102 103 16.9231
r66 100 103 5.58729
r67 100 101 17.3077
r68 96 101 5.58729
r69 96 98 186.154
r70 92 94 57.6923
r71 91 131 8.27089
r72 90 124 0.587288
r73 90 91 33.8462
r74 88 92 5.58729
r75 88 89 33.4615
r76 87 122 0.587288
r77 86 89 5.58729
r78 86 87 368.462
r79 82 84 353.462
r80 78 80 476.923
r81 76 82 5.58729
r82 76 77 22.3077
r83 74 78 5.58729
r84 74 75 21.5385
r85 73 77 5.58729
r86 72 130 8.27089
r87 72 73 168.846
r88 71 130 8.27089
r89 70 75 5.58729
r90 70 71 31.9231
r91 58 60 0.0677543
r92 44 161 0.0477743
r93 40 43 0.0517569
r94 34 36 0.0625
r95 30 32 0.0725
r96 26 28 0.0775
r97 22 24 0.1375
r98 21 32 0.0046983
r99 21 43 0.4175
r100 15 38 0.0517569
r101 15 17 0.209231
r102 13 36 0.0046983
r103 13 38 0.2425
r104 12 24 0.0046983
r105 11 58 0.0717543
r106 11 12 0.115
r107 10 34 0.0046983
r108 9 28 0.0046983
r109 9 10 1.8775
r110 7 30 0.0046983
r111 7 60 2.72
r112 6 26 0.0046983
r113 5 22 0.0046983
r114 5 6 0.705
r115 4 58 0.68
r116 4 46 0.108444
r117 4 44 0.68
r118 4 40 15.61
r119 4 17 3.8825
r120 3 46 0.916356
r121 1 4 2.1105
.ends

.subckt PM_ALU_A 11 15 29 33 39 43 51 59 63 73 83 87 214
r0 334 342 0.68
r1 223 338 0.68
r2 222 223 0.68
r3 220 222 0.0477743
r4 219 220 2.158
r5 217 219 0.0660193
r6 217 342 0.68
r7 214 217 0.189414
r8 210 211 0.68
r9 201 210 0.0480501
r10 201 202 0.634
r11 200 334 0.0477743
r12 199 202 0.0446983
r13 199 200 4.38
r14 198 203 0.022195
r15 197 338 0.0480501
r16 197 198 1.376
r17 195 206 0.0480501
r18 195 196 1.012
r19 194 196 0.0446983
r20 193 203 0.0225033
r21 193 194 0.542
r22 148 149 0.414
r23 146 147 1.012
r24 144 145 1.064
r25 142 143 0.328
r26 140 211 0.0480501
r27 140 141 0.174
r28 129 319 0.0559551
r29 128 129 0.41
r30 126 128 0.0446983
r31 126 127 0.1875
r32 125 127 0.0446983
r33 124 125 0.7025
r34 123 131 0.0514492
r35 122 124 0.0446983
r36 122 123 0.0925
r37 121 186 11.07
r38 121 186 0.68
r39 120 190 11.07
r40 120 148 0.0477743
r41 120 190 0.68
r42 119 176 11.07
r43 119 149 0.0477743
r44 119 176 0.68
r45 118 181 11.07
r46 118 146 0.0477743
r47 118 181 0.68
r48 117 171 11.07
r49 117 144 0.0477743
r50 117 171 0.68
r51 116 166 11.07
r52 116 147 0.0477743
r53 116 166 0.68
r54 115 162 11.07
r55 115 145 0.0474984
r56 115 142 0.0480501
r57 115 162 0.68
r58 114 157 11.07
r59 114 143 0.0474984
r60 114 157 0.68
r61 113 152 11.07
r62 113 141 0.0474984
r63 113 152 0.68
r64 112 290 0.68
r65 112 240 2.03636
r66 112 290 11.07
r67 112 206 0.68
r68 111 234 0.0333333
r69 111 136 11.07
r70 111 136 0.68
r71 110 319 0.68
r72 110 319 11.07
r73 110 226 8.27089
r74 110 203 0.68
r75 110 131 11.07
r76 106 108 7.69231
r77 101 103 6.92308
r78 96 98 15
r79 94 120 8.27089
r80 93 121 8.27089
r81 93 94 129.231
r82 92 121 8.27089
r83 91 92 50.7692
r84 89 91 5.58729
r85 89 90 21.1538
r86 85 90 5.58729
r87 85 87 123.462
r88 81 108 0.587288
r89 81 83 272.308
r90 80 118 4.10174
r91 79 119 8.27089
r92 79 80 53.0769
r93 78 119 8.27089
r94 77 106 0.587288
r95 77 78 54.2308
r96 75 118 10.6707
r97 75 76 98.8462
r98 71 105 4.23445
r99 71 73 166.154
r100 70 105 4.23445
r101 69 76 5.58729
r102 69 70 390
r103 68 117 8.27089
r104 67 105 1.10046
r105 67 68 20.7692
r106 66 116 8.27089
r107 65 103 0.587288
r108 65 66 96.5385
r109 61 101 0.587288
r110 61 63 306.154
r111 57 59 105.769
r112 56 98 0.587288
r113 55 115 8.27089
r114 55 56 13.8462
r115 54 100 1.10046
r116 53 57 5.58729
r117 53 54 29.2308
r118 49 100 4.23445
r119 49 51 105.769
r120 48 100 4.23445
r121 47 96 0.587288
r122 47 48 20
r123 46 95 1.10046
r124 45 114 8.30422
r125 45 46 15.3846
r126 41 113 8.27858
r127 41 43 703.846
r128 37 95 4.23445
r129 37 39 166.154
r130 36 95 4.23445
r131 35 113 8.27858
r132 35 36 92.3077
r133 31 240 4.20996
r134 31 33 647.308
r135 27 29 96.9231
r136 26 111 6.08038
r137 25 240 7.85253
r138 25 26 14.75
r139 23 27 5.58729
r140 23 24 28.4615
r141 22 24 5.58729
r142 21 234 4.63979
r143 21 22 273.846
r144 19 110 8.27089
r145 19 20 149.231
r146 17 20 5.58729
r147 17 18 51.1538
r148 13 18 5.58729
r149 13 15 292.692
r150 11 226 346.538
.ends

.subckt PM_ALU_CIN 18 22 28 32 42 48 108
r0 163 167 0.68
r1 111 167 0.68
r2 108 111 0.189414
r3 102 104 0.0477743
r4 101 163 0.0477743
r5 101 102 0.77
r6 76 77 0.974
r7 74 75 0.612
r8 72 73 0.24
r9 70 71 1.178
r10 69 98 11.07
r11 69 76 0.0477743
r12 69 98 0.68
r13 68 93 11.07
r14 68 74 0.0477743
r15 68 93 0.68
r16 67 89 11.07
r17 67 75 0.0477743
r18 67 72 0.0477743
r19 67 89 0.68
r20 66 77 0.0477743
r21 66 148 0.68
r22 66 148 11.07
r23 66 104 0.68
r24 65 85 11.07
r25 65 73 0.0474984
r26 65 70 0.0480501
r27 65 85 0.68
r28 64 80 11.07
r29 64 71 0.0474984
r30 64 80 0.68
r31 60 62 7.30769
r32 56 58 15.3846
r33 52 54 17.6923
r34 50 51 10
r35 46 58 0.587288
r36 46 48 179.615
r37 44 62 0.587288
r38 44 45 48.8462
r39 40 69 8.27089
r40 40 42 412.692
r41 39 60 0.587288
r42 38 56 0.587288
r43 38 39 82.6923
r44 37 68 8.27089
r45 36 45 5.58729
r46 36 37 55.3846
r47 35 66 8.27089
r48 34 67 8.27089
r49 34 35 211.923
r50 30 54 0.587288
r51 30 32 267.308
r52 26 65 8.27858
r53 26 28 647.692
r54 25 65 8.27858
r55 24 52 0.587288
r56 24 25 47.3077
r57 20 22 310.769
r58 16 18 153.462
r59 14 16 5.58729
r60 14 15 16.5385
r61 12 20 5.58729
r62 12 13 21.1538
r63 10 64 8.27089
r64 10 50 201.538
r65 9 64 8.27089
r66 8 15 5.58729
r67 8 9 161.154
r68 7 13 5.58729
r69 7 51 115.385
.ends

.subckt PM_ALU_27 1 3 63 67 79 87 93 97 101 105
r0 225 227 0.0702041
r1 223 225 0.0163265
r2 177 182 0.0546708
r3 177 178 2.298
r4 176 178 0.0446983
r5 175 176 0.17
r6 173 175 0.0446983
r7 173 174 1.496
r8 148 149 0.416
r9 146 147 0.822
r10 144 145 0.754
r11 142 143 0.32
r12 136 165 0.0559551
r13 136 137 1.08
r14 135 139 0.0517569
r15 134 227 0.0211853
r16 134 135 0.13
r17 132 137 0.0446983
r18 132 133 0.12
r19 131 223 0.0211853
r20 130 133 0.0446983
r21 130 131 0.8425
r22 129 170 11.07
r23 129 148 0.0477743
r24 129 170 0.68
r25 128 146 0.0546708
r26 128 225 0.68
r27 128 165 11.07
r28 128 182 0.538333
r29 128 149 0.0477743
r30 128 165 0.68
r31 128 139 11.07
r32 127 161 11.07
r33 127 147 0.0477743
r34 127 144 0.0477743
r35 127 161 0.68
r36 126 157 11.07
r37 126 145 0.0474984
r38 126 142 0.0480501
r39 126 157 0.68
r40 125 152 11.07
r41 125 143 0.0474984
r42 125 152 0.68
r43 121 123 18.8462
r44 117 119 9.23077
r45 111 113 9.61539
r46 107 109 14.6154
r47 103 129 8.27089
r48 103 105 294.231
r49 99 128 8.27089
r50 99 101 294.231
r51 95 128 8.27089
r52 95 97 306.538
r53 91 123 0.587288
r54 91 93 294.231
r55 90 127 8.27089
r56 89 121 0.587288
r57 89 90 320.385
r58 85 119 0.587288
r59 85 87 135.769
r60 84 117 0.587288
r61 83 84 51.5385
r62 82 115 1.10046
r63 81 83 5.58729
r64 81 82 83.8462
r65 77 116 4.23445
r66 77 79 119.231
r67 76 116 4.23445
r68 75 115 4.23445
r69 75 76 68.0769
r70 74 115 4.23445
r71 73 113 0.587288
r72 73 74 108.462
r73 72 111 0.587288
r74 71 126 8.27089
r75 71 72 21.9231
r76 69 116 1.10046
r77 69 70 28.4615
r78 65 70 5.58729
r79 65 67 119.231
r80 61 109 0.587288
r81 61 63 573.462
r82 60 125 8.27089
r83 59 107 0.587288
r84 59 60 41.1538
r85 45 47 0.0687543
r86 32 174 0.0474984
r87 28 31 0.0517569
r88 22 24 0.125
r89 18 20 0.1275
r90 17 24 0.0046983
r91 17 31 3.81
r92 11 26 0.0517569
r93 11 13 0.209231
r94 9 20 0.0046983
r95 9 26 1.4825
r96 7 22 0.0046983
r97 7 47 0.12
r98 6 18 0.0046983
r99 5 45 0.0707543
r100 5 6 0.825
r101 4 45 0.68
r102 4 32 0.68
r103 4 28 15.61
r104 4 13 3.8825
r105 3 4 1.03564
r106 1 4 2.13283
.ends

.subckt PM_ALU_ALUOP_0 4 10 18 22 54 60 68 72 104 110 118 122 167
r0 188 189 0.68
r1 182 183 3.356
r2 181 188 0.0223492
r3 180 195 0.0477743
r4 180 181 0.764