* File: Mux81.pex.netlist.pex
* Created: Mon Apr 15 15:27:51 2019
* Program "Calibre xRC"
* Version "v2012.2_36.25"
* Nominal Temperature: 27C
* Circuit Temperature: 27C
* 
.subckt PM_MUX81_X0_7 6 12 16 18
r0 54 56 0.0475
r1 41 62 0.0338756
r2 41 42 1.705
r3 40 62 0.0338756
r4 39 59 0.0517569
r5 39 40 1.0625
r6 37 56 0.0046983
r7 37 38 0.77
r8 32 38 0.0458784
r9 32 34 0.209231
r10 31 54 0.0046983
r11 30 52 0.0517569
r12 30 31 0.11
r13 29 52 0.0517569
r14 28 29 0.9075
r15 27 48 0.0517569
r16 26 62 0.00880368
r17 26 27 0.35
r18 25 44 0.0234599
r19 24 42 0.0446983
r20 24 25 0.6525
r21 22 28 0.0446983
r22 22 23 0.625
r23 21 23 0.0446983
r24 20 44 0.0517569
r25 20 21 1.5675
r26 19 59 15.61
r27 19 52 11.07
r28 19 48 11.07
r29 19 44 11.07
r30 19 34 3.8825
r31 18 19 0.921778
r32 16 19 1.89833
r33 14 19 8.27089
r34 14 15 109.615
r35 10 15 5.58729
r36 10 12 201.923
r37 8 19 8.27089
r38 8 9 86.1538
r39 4 9 5.58729
r40 4 6 174.615
.ends

.subckt PM_MUX81_X1_7 6 12 16 18
r0 54 56 0.0475
r1 41 62 0.0338756
r2 41 42 1.705
r3 40 62 0.0338756
r4 39 59 0.0517569
r5 39 40 1.0625
r6 37 56 0.0046983
r7 37 38 0.77
r8 32 38 0.0458784
r9 32 34 0.209231
r10 31 54 0.0046983
r11 30 52 0.0517569
r12 30 31 0.11
r13 29 52 0.0517569
r14 28 29 0.9075
r15 27 48 0.0517569
r16 26 62 0.00880368
r17 26 27 0.35
r18 25 44 0.0234599
r19 24 42 0.0446983
r20 24 25 0.6525
r21 22 28 0.0446983
r22 22 23 0.625
r23 21 23 0.0446983
r24 20 44 0.0517569
r25 20 21 1.5675
r26 19 59 15.61
r27 19 52 11.07
r28 19 48 11.07
r29 19 44 11.07
r30 19 34 3.8825
r31 18 19 0.921778
r32 16 19 1.89833
r33 14 19 8.27089
r34 14 15 109.615
r35 10 15 5.58729
r36 10 12 201.923
r37 8 19 8.27089
r38 8 9 86.1538
r39 4 9 5.58729
r40 4 6 174.615
.ends

.subckt PM_MUX81_X2_7 6 12 16 18
r0 54 56 0.0475
r1 41 62 0.0338756
r2 41 42 1.705
r3 40 62 0.0338756
r4 39 59 0.0517569
r5 39 40 1.0625
r6 37 56 0.0046983
r7 37 38 0.77
r8 32 38 0.0458784
r9 32 34 0.209231
r10 31 54 0.0046983
r11 30 52 0.0517569
r12 30 31 0.11
r13 29 52 0.0517569
r14 28 29 0.9075
r15 27 48 0.0517569
r16 26 62 0.00880368
r17 26 27 0.35
r18 25 44 0.0234599
r19 24 42 0.0446983
r20 24 25 0.6525
r21 22 28 0.0446983
r22 22 23 0.625
r23 21 23 0.0446983
r24 20 44 0.0517569
r25 20 21 1.5675
r26 19 59 15.61
r27 19 52 11.07
r28 19 48 11.07
r29 19 44 11.07
r30 19 34 3.8825
r31 18 19 0.921778
r32 16 19 1.89833
r33 14 19 8.27089
r34 14 15 109.615
r35 10 15 5.58729
r36 10 12 201.923
r37 8 19 8.27089
r38 8 9 86.1538
r39 4 9 5.58729
r40 4 6 174.615
.ends

.subckt PM_MUX81_X3_7 6 12 16 18
r0 54 56 0.0475
r1 41 62 0.0338756
r2 41 42 1.705
r3 40 62 0.0338756
r4 39 59 0.0517569
r5 39 40 1.0625
r6 37 56 0.0046983
r7 37 38 0.77
r8 32 38 0.0458784
r9 32 34 0.209231
r10 31 54 0.0046983
r11 30 52 0.0517569
r12 30 31 0.11
r13 29 52 0.0517569
r14 28 29 0.9075
r15 27 48 0.0517569
r16 26 62 0.00880368
r17 26 27 0.35
r18 25 44 0.0234599
r19 24 42 0.0446983
r20 24 25 0.6525
r21 22 28 0.0446983
r22 22 23 0.625
r23 21 23 0.0446983
r24 20 44 0.0517569
r25 20 21 1.5675
r26 19 59 15.61
r27 19 52 11.07
r28 19 48 11.07
r29 19 44 11.07
r30 19 34 3.8825
r31 18 19 0.921778
r32 16 19 1.89833
r33 14 19 8.27089
r34 14 15 109.615
r35 10 15 5.58729
r36 10 12 201.923
r37 8 19 8.27089
r38 8 9 86.1538
r39 4 9 5.58729
r40 4 6 174.615
.ends

.subckt PM_MUX81_X4_7 6 12 16 18
r0 54 56 0.0475
r1 41 62 0.0338756
r2 41 42 1.705
r3 40 62 0.0338756
r4 39 59 0.0517569
r5 39 40 1.0625
r6 37 56 0.0046983
r7 37 38 0.77
r8 32 38 0.0458784
r9 32 34 0.209231
r10 31 54 0.0046983
r11 30 52 0.0517569
r12 30 31 0.11
r13 29 52 0.0517569
r14 28 29 0.9075
r15 27 48 0.0517569
r16 26 62 0.00880368
r17 26 27 0.35
r18 25 44 0.0234599
r19 24 42 0.0446983
r20 24 25 0.6525
r21 22 28 0.0446983
r22 22 23 0.625
r23 21 23 0.0446983
r24 20 44 0.0517569
r25 20 21 1.5675
r26 19 59 15.61
r27 19 52 11.07
r28 19 48 11.07
r29 19 44 11.07
r30 19 34 3.8825
r31 18 19 0.921778
r32 16 19 1.89833
r33 14 19 8.27089
r34 14 15 109.615
r35 10 15 5.58729
r36 10 12 201.923
r37 8 19 8.27089
r38 8 9 86.1538
r39 4 9 5.58729
r40 4 6 174.615
.ends

.subckt PM_MUX81_X5_7 6 12 16 18
r0 54 56 0.0475
r1 41 62 0.0338756
r2 41 42 1.705
r3 40 62 0.0338756
r4 39 59 0.0517569
r5 39 40 1.0625
r6 37 56 0.0046983
r7 37 38 0.77
r8 32 38 0.0458784
r9 32 34 0.209231
r10 31 54 0.0046983
r11 30 52 0.0517569
r12 30 31 0.11
r13 29 52 0.0517569
r14 28 29 0.9075
r15 27 48 0.0517569
r16 26 62 0.00880368
r17 26 27 0.35
r18 25 44 0.0234599
r19 24 42 0.0446983
r20 24 25 0.6525
r21 22 28 0.0446983
r22 22 23 0.625
r23 21 23 0.0446983
r24 20 44 0.0517569
r25 20 21 1.5675
r26 19 59 15.61
r27 19 52 11.07
r28 19 48 11.07
r29 19 44 11.07
r30 19 34 3.8825
r31 18 19 0.921778
r32 16 19 1.89833
r33 14 19 8.27089
r34 14 15 109.615
r35 10 15 5.58729
r36 10 12 201.923
r37 8 19 8.27089
r38 8 9 86.1538
r39 4 9 5.58729
r40 4 6 174.615
.ends

.subckt PM_MUX81_X6_7 6 12 16 18
r0 54 56 0.0475
r1 41 62 0.0338756
r2 41 42 1.705
r3 40 62 0.0338756
r4 39 59 0.0517569
r5 39 40 1.0625
r6 37 56 0.0046983
r7 37 38 0.77
r8 32 38 0.0458784
r9 32 34 0.209231
r10 31 54 0.0046983
r11 30 52 0.0517569
r12 30 31 0.11
r13 29 52 0.0517569
r14 28 29 0.9075
r15 27 48 0.0517569
r16 26 62 0.00880368
r17 26 27 0.35
r18 25 44 0.0234599
r19 24 42 0.0446983
r20 24 25 0.6525
r21 22 28 0.0446983
r22 22 23 0.625
r23 21 23 0.0446983
r24 20 44 0.0517569
r25 20 21 1.5675
r26 19 59 15.61
r27 19 52 11.07
r28 19 48 11.07
r29 19 44 11.07
r30 19 34 3.8825
r31 18 19 0.921778
r32 16 19 1.89833
r33 14 19 8.27089
r34 14 15 109.615
r35 10 15 5.58729
r36 10 12 201.923
r37 8 19 8.27089
r38 8 9 86.1538
r39 4 9 5.58729
r40 4 6 174.615
.ends

.subckt PM_MUX81_VDD 3 22 24 45 66 87 108 129 220
r0 232 240 0.00419427
r1 231 234 0.102649
r2 230 240 0.0648174
r3 228 239 0.00419427
r4 227 240 0.00419427
r5 226 239 0.0648174
r6 224 238 0.00419427
r7 223 239 0.00419427
r8 222 238 0.0648174
r9 218 237 0.00419427
r10 218 220 0.1976
r11 217 238 0.00419427
r12 216 237 0.0648174
r13 214 236 0.00419427
r14 213 237 0.00419427
r15 212 236 0.0648174
r16 210 235 0.00419427
r17 209 236 0.00419427
r18 208 235 0.0648174
r19 206 235 0.00419427
r20 139 234 0.2125
r21 133 139 0.0469158
r22 133 135 0.104615
r23 131 231 0.0242667
r24 131 232 0.2072
r25 129 141 0.921778
r26 118 230 0.2125
r27 112 118 0.0469158
r28 112 114 0.104615
r29 110 227 0.0242667
r30 110 228 0.2072
r31 108 120 0.921778
r32 97 226 0.2125
r33 91 97 0.0469158
r34 91 93 0.104615
r35 89 223 0.0242667
r36 89 224 0.2072
r37 87 99 0.921778
r38 76 222 0.2125
r39 70 76 0.0469158
r40 70 72 0.104615
r41 68 217 0.0242667
r42 68 220 0.0096
r43 66 78 0.921778
r44 55 216 0.2125
r45 49 55 0.0469158
r46 49 51 0.104615
r47 47 213 0.0242667
r48 47 214 0.2072
r49 45 57 0.921778
r50 34 212 0.2125
r51 28 34 0.0469158
r52 28 30 0.104615
r53 26 209 0.0242667
r54 26 210 0.2072
r55 24 36 0.921778
r56 22 141 0.108444
r57 22 135 3.8825
r58 22 131 0.325208
r59 22 120 0.108444
r60 22 114 3.8825
r61 22 110 0.325208
r62 22 99 0.108444
r63 22 93 3.8825
r64 22 89 0.325208
r65 22 78 0.108444
r66 22 72 3.8825
r67 22 68 0.325208
r68 22 57 0.108444
r69 22 51 3.8825
r70 22 47 0.325208
r71 22 36 0.108444
r72 22 30 3.8825
r73 22 26 0.325208
r74 15 22 0.108444
r75 13 208 0.2125
r76 9 22 3.8825
r77 7 13 0.0469158
r78 7 9 0.104615
r79 5 206 0.0242667
r80 5 22 0.325208
r81 3 15 0.921778
.ends

.subckt PM_MUX81_GROUND 1 21 41 61 81 101 102 121 216
r0 228 236 0.00419427
r1 227 230 0.102649
r2 226 236 0.0648174
r3 224 235 0.00419427
r4 223 236 0.00419427
r5 222 235 0.0648174
r6 220 234 0.00419427
r7 219 235 0.00419427
r8 218 234 0.0648174
r9 214 233 0.00419427
r10 214 216 0.196
r11 213 234 0.00419427
r12 212 233 0.0648174
r13 210 232 0.00419427
r14 209 233 0.00419427
r15 208 232 0.0648174
r16 206 231 0.00419427
r17 205 232 0.00419427
r18 204 231 0.0648174
r19 202 231 0.00419427
r20 132 230 0.28
r21 130 132 0.0517569
r22 126 227 0.0258667
r23 126 228 0.2056
r24 112 226 0.28
r25 110 112 0.0517569
r26 106 223 0.0258667
r27 106 224 0.2056
r28 102 121 2.12167
r29 102 130 15.61
r30 102 126 0.323542
r31 102 110 15.61
r32 102 106 0.323542
r33 101 102 2.12167
r34 92 222 0.28
r35 90 92 0.0517569
r36 90 102 15.61
r37 86 219 0.0258667
r38 86 220 0.2056
r39 86 102 0.323542
r40 81 102 2.12167
r41 72 218 0.28
r42 70 72 0.0517569
r43 70 102 15.61
r44 66 213 0.0258667
r45 66 216 0.0096
r46 66 102 0.323542
r47 61 102 2.12167
r48 52 212 0.28
r49 50 52 0.0517569
r50 50 102 15.61
r51 46 209 0.0258667
r52 46 210 0.2056
r53 46 102 0.323542
r54 41 102 2.12167
r55 32 208 0.28
r56 30 32 0.0517569
r57 30 102 15.61
r58 26 205 0.0258667
r59 26 206 0.2056
r60 26 102 0.323542
r61 21 102 2.12167
r62 12 204 0.28
r63 10 12 0.0517569
r64 10 102 15.61
r65 6 202 0.0258667
r66 6 102 0.323542
r67 1 102 2.12167
.ends

.subckt PM_MUX81_IN0 1 3 71
r0 71 74 0.68
r1 66 74 0.0477743
r2 66 67 0.706
r3 58 60 0.0677543
r4 44 67 0.0477743
r5 40 43 0.0517569
r6 34 36 0.0625
r7 30 32 0.0725
r8 26 28 0.0775
r9 22 24 0.1375
r10 21 32 0.0046983
r11 21 43 0.4175
r12 15 38 0.0517569
r13 15 17 0.209231
r14 13 36 0.0046983
r15 13 38 0.2425
r16 12 24 0.0046983
r17 11 58 0.0717543
r18 11 12 0.115
r19 10 34 0.0046983
r20 9 28 0.0046983
r21 9 10 1.8775
r22 7 30 0.0046983
r23 7 60 2.72
r24 6 26 0.0046983
r25 5 22 0.0046983
r26 5 6 0.705
r27 4 58 0.68
r28 4 46 0.108444
r29 4 44 0.68
r30 4 40 15.61
r31 4 17 3.8825
r32 3 46 0.916356
r33 1 4 2.1105
.ends

.subckt PM_MUX81_4 1 3 52 54
r0 127 128 0.68
r1 123 124 0.68
r2 120 127 0.0477743
r3 120 121 3.374
r4 119 123 0.0477743
r5 118 121 0.0446983
r6 118 119 0.536
r7 109 111 0.0677543
r8 91 94 0.0517569
r9 85 87 0.0625
r10 81 83 0.0725
r11 77 79 0.0775
r12 73 75 0.1375
r13 72 83 0.0046983
r14 72 94 0.4175
r15 66 89 0.0517569
r16 66 68 0.209231
r17 64 87 0.0046983
r18 64 89 0.2425
r19 63 75 0.0046983
r20 62 109 0.0717543
r21 62 63 0.115
r22 61 85 0.0046983
r23 60 79 0.0046983
r24 60 61 1.8775
r25 58 81 0.0046983
r26 58 111 2.72
r27 57 77 0.0046983
r28 56 73 0.0046983
r29 56 57 0.705
r30 55 109 0.68
r31 55 97 0.108444
r32 55 128 0.68
r33 55 91 15.61
r34 55 68 3.8825
r35 54 97 0.916356
r36 52 55 2.1105
r37 45 47 0.0687543
r38 28 31 0.0517569
r39 22 24 0.125
r40 18 20 0.1275
r41 17 24 0.0046983
r42 17 31 3.81
r43 11 26 0.0517569
r44 11 13 0.209231
r45 9 20 0.0046983
r46 9 26 1.4825
r47 7 22 0.0046983
r48 7 47 0.12
r49 6 18 0.0046983
r50 5 45 0.0707543
r51 5 6 0.825
r52 4 45 0.68
r53 4 124 0.68
r54 4 28 15.61
r55 4 13 3.8825
r56 3 4 1.03564
r57 1 4 2.13283
.ends

.subckt PM_MUX81_IN1 1 3 70
r0 68 70 0.68
r1 62 68 0.0477743
r2 62 63 1.086
r3 39 63 0.0477743
r4 27 28 2.312
r5 25 26 0.642
r6 23 28 0.0446983
r7 23 24 0.14
r8 21 24 0.0446983
r9 21 22 0.258
r10 17 20 0.0517569
r11 14 36 0.0559551
r12 14 15 0.18
r13 13 15 0.0446983
r14 13 20 2.255
r15 7 31 0.0393755
r16 7 9 0.141538
r17 6 25 0.0477743
r18 6 36 0.68
r19 6 17 15.61
r20 5 27 0.0477743
r21 5 26 0.0477743
r22 5 39 0.68
r23 4 22 0.0477743
r24 4 31 0.68
r25 4 9 3.8825
r26 3 4 0.9272
r27 1 6 1.9095
.ends

.subckt PM_MUX81_IN2 1 3 71
r0 71 74 0.68
r1 66 74 0.0477743
r2 66 67 1.142
r3 58 60 0.0677543
r4 44 67 0.0477743
r5 40 43 0.0517569
r6 34 36 0.0625
r7 30 32 0.0725
r8 26 28 0.0775
r9 22 24 0.1375
r10 21 32 0.0046983
r11 21 43 0.4175
r12 15 38 0.0517569
r13 15 17 0.209231
r14 13 36 0.0046983
r15 13 38 0.2425
r16 12 24 0.0046983
r17 11 58 0.0717543
r18 11 12 0.115
r19 10 34 0.0046983
r20 9 28 0.0046983
r21 9 10 1.8775
r22 7 30 0.0046983
r23 7 60 2.72
r24 6 26 0.0046983
r25 5 22 0.0046983
r26 5 6 0.705
r27 4 58 0.68
r28 4 46 0.108444
r29 4 44 0.68
r30 4 40 15.61
r31 4 17 3.8825
r32 3 46 0.916356
r33 1 4 2.1105
.ends

.subckt PM_MUX81_IN3 1 3 70
r0 68 70 0.68
r1 62 68 0.0477743
r2 62 63 0.566
r3 39 63 0.0477743
r4 27 28 2.312
r5 25 26 0.642
r6 23 28 0.0446983
r7 23 24 0.14
r8 21 24 0.0446983
r9 21 22 0.258
r10 17 20 0.0517569
r11 14 36 0.0559551
r12 14 15 0.18
r13 13 15 0.0446983
r14 13 20 2.255
r15 7 31 0.0393755
r16 7 9 0.141538
r17 6 25 0.0477743
r18 6 36 0.68
r19 6 17 15.61
r20 5 27 0.0477743
r21 5 26 0.0477743
r22 5 39 0.68
r23 4 22 0.0477743
r24 4 31 0.68
r25 4 9 3.8825
r26 3 4 0.9272
r27 1 6 1.9095
.ends

.subckt PM_MUX81_8 1 3 52 54
r0 120 121 0.164
r1 118 121 0.0446983
r2 118 119 1.024
r3 116 119 0.0446983
r4 116 117 0.35
r5 114 117 0.0446983
r6 114 115 1.146
r7 90 120 0.0477743
r8 78 79 2.312
r9 76 77 0.642
r10 74 79 0.0446983
r11 74 75 0.14
r12 72 75 0.0446983
r13 72 73 0.258
r14 68 71 0.0517569
r15 65 87 0.0559551
r16 65 66 0.18
r17 64 66 0.0446983
r18 64 71 2.255
r19 58 82 0.0393755
r20 58 60 0.141538
r21 57 76 0.0477743
r22 57 87 0.68
r23 57 68 15.61
r24 56 78 0.0477743
r25 56 77 0.0477743
r26 56 90 0.68
r27 55 73 0.0477743
r28 55 82 0.68
r29 55 60 3.8825
r30 54 55 0.9272
r31 52 57 1.9095
r32 45 47 0.0687543
r33 32 115 0.0474984
r34 28 31 0.0517569
r35 22 24 0.125
r36 18 20 0.1275
r37 17 24 0.0046983
r38 17 31 3.81
r39 11 26 0.0517569
r40 11 13 0.209231
r41 9 20 0.0046983
r42 9 26 1.4825
r43 7 22 0.0046983
r44 7 47 0.12
r45 6 18 0.0046983
r46 5 45 0.0707543
r47 5 6 0.825
r48 4 45 0.68
r49 4 32 0.68
r50 4 28 15.61
r51 4 13 3.8825
r52 3 4 1.03564
r53 1 4 2.13283
.ends

.subckt PM_MUX81_IN4 1 3 71
r0 71 74 0.68
r1 66 74 0.0477743
r2 66 67 0.922
r3 58 60 0.0677543
r4 44 67 0.0477743
r5 40 43 0.0517569
r6 34 36 0.0625
r7 30 32 0.0725
r8 26 28 0.0775
r9 22 24 0.1375
r10 21 32 0.0046983
r11 21 43 0.4175
r12 15 38 0.0517569
r13 15 17 0.209231
r14 13 36 0.0046983
r15 13 38 0.2425
r16 12 24 0.0046983
r17 11 58 0.0717543
r18 11 12 0.115
r19 10 34 0.0046983
r20 9 28 0.0046983
r21 9 10 1.8775
r22 7 30 0.0046983
r23 7 60 2.72
r24 6 26 0.0046983
r25 5 22 0.0046983
r26 5 6 0.705
r27 4 58 0.68
r28 4 46 0.108444
r29 4 44 0.68
r30 4 40 15.61
r31 4 17 3.8825
r32 3 46 0.916356
r33 1 4 2.1105
.ends

.subckt PM_MUX81_10 1 3 52 54
r0 123 124 0.68
r1 120 127 0.0477743
r2 120 121 3.376
r3 119 123 0.0477743
r4 118 121 0.0446983
r5 118 119 0.532
r6 109 111 0.0677543
r7 95 127 0.68
r8 91 94 0.0517569
r9 85 87 0.0625
r10 81 83 0.0725
r11 77 79 0.0775
r12 73 75 0.1375
r13 72 83 0.0046983
r14 72 94 0.4175
r15 66 89 0.0517569
r16 66 68 0.209231
r17 64 87 0.0046983
r18 64 89 0.2425
r19 63 75 0.0046983
r20 62 109 0.0717543
r21 62 63 0.115
r22 61 85 0.0046983
r23 60 79 0.0046983
r24 60 61 1.8775
r25 58 81 0.0046983
r26 58 111 2.72
r27 57 77 0.0046983
r28 56 73 0.0046983
r29 56 57 0.705
r30 55 109 0.68
r31 55 97 0.108444
r32 55 95 0.68
r33 55 91 15.61
r34 55 68 3.8825
r35 54 97 0.916356
r36 52 55 2.1105
r37 45 47 0.0687543
r38 28 31 0.0517569
r39 22 24 0.125
r40 18 20 0.1275
r41 17 24 0.0046983
r42 17 31 3.81
r43 11 26 0.0517569
r44 11 13 0.209231
r45 9 20 0.0046983
r46 9 26 1.4825
r47 7 22 0.0046983
r48 7 47 0.12
r49 6 18 0.0046983
r50 5 45 0.0707543
r51 5 6 0.825
r52 4 45 0.68
r53 4 124 0.68
r54 4 28 15.61
r55 4 13 3.8825
r56 3 4 1.03564
r57 1 4 2.13283
.ends

.subckt PM_MUX81_IN5 1 3 70
r0 68 70 0.68
r1 62 68 0.0477743
r2 62 63 0.536
r3 39 63 0.0477743
r4 27 28 2.312
r5 25 26 0.642
r6 23 28 0.0446983
r7 23 24 0.14
r8 21 24 0.0446983
r9 21 22 0.258
r10 17 20 0.0517569
r11 14 36 0.0559551
r12 14 15 0.18
r13 13 15 0.0446983
r14 13 20 2.255
r15 7 31 0.0393755
r16 7 9 0.141538
r17 6 25 0.0477743
r18 6 36 0.68
r19 6 17 15.61
r20 5 27 0.0477743
r21 5 26 0.0477743
r22 5 39 0.68
r23 4 22 0.0477743
r24 4 31 0.68
r25 4 9 3.8825
r26 3 4 0.9272
r27 1 6 1.9095
.ends

.subckt PM_MUX81_S0 4 10 18 22 54 60 68 72 104 110 118 122 154 160 168 172 247
r0 247 250 0.68
r1 235 236 1.018
r2 233 236 0.0446983
r3 233 234 1.822
r4 232 241 0.0338756
r5 231 234 0.0446983
r6 231 232 1.076
r7 230 250 0.0477743
r8 229 241 0.00880368
r9 229 230 0.45
r10 227 241 0.0338756
r11 227 228 0.888
r12 225 226 1.342
r13 224 228 0.0446983
r14 223 240 0.0338756
r15 223 224 1.126
r16 222 240 0.0338756
r17 221 226 0.0446983
r18 221 222 0.612
r19 219 240 0.00880368
r20 219 220 0.606
r21 218 220 0.0446983
r22 217 218 0.504
r23 215 217 0.0446983
r24 215 216 0.696
r25 213 216 0.0446983
r26 213 214 0.922
r27 211 212 1.684
r28 209 214 0.0446983
r29 209 210 3.57
r30 207 208 1.054
r31 206 210 0.0446983
r32 205 208 0.0446983
r33 205 206 1.03
r34 185 235 0.0477743
r35 184 193 0.68
r36 184 190 8.27089
r37 184 193 11.07
r38 184 185 0.68
r39 180 181 146.154
r40 179 183 4.23445
r41 178 180 5.58729
r42 178 179 33.0769
r43 176 181 5.58729
r44 176 177 36.5385
r45 175 183 1.10046
r46 174 184 8.27089
r47 174 175 230.385
r48 170 182 4.23445
r49 170 172 64.2308
r50 166 177 5.58729
r51 166 168 90
r52 164 182 4.23445
r53 164 190 490.385
r54 162 182 1.10046
r55 162 163 103.077
r56 158 163 5.58729
r57 158 160 64.2308
r58 156 183 4.23445
r59 156 157 146.538
r60 152 157 5.58729
r61 152 154 246.154
r62 135 225 0.0477743
r63 134 143 0.68
r64 134 140 8.27089
r65 134 143 11.07
r66 134 135 0.68
r67 130 131 146.154
r68 129 133 4.23445
r69 128 130 5.58729
r70 128 129 33.0769
r71 126 131 5.58729
r72 126 127 36.5385
r73 125 133 1.10046
r74 124 134 8.27089
r75 124 125 230.385
r76 120 132 4.23445
r77 120 122 64.2308
r78 116 127 5.58729
r79 116 118 90
r80 114 132 4.23445
r81 114 140 490.385
r82 112 132 1.10046
r83 112 113 103.077
r84 108 113 5.58729
r85 108 110 64.2308
r86 106 133 4.23445
r87 106 107 146.538
r88 102 107 5.58729
r89 102 104 246.154
r90 85 211 0.0477743
r91 84 93 0.68
r92 84 90 8.27089
r93 84 93 11.07
r94 84 85 0.68
r95 80 81 146.154
r96 79 83 4.23445
r97 78 80 5.58729
r98 78 79 33.0769
r99 76 81 5.58729
r100 76 77 36.5385
r101 75 83 1.10046
r102 74 84 8.27089
r103 74 75 230.385
r104 70 82 4.23445
r105 70 72 64.2308
r106 66 77 5.58729
r107 66 68 90
r108 64 82 4.23445
r109 64 90 490.385
r110 62 82 1.10046
r111 62 63 103.077
r112 58 63 5.58729
r113 58 60 64.2308
r114 56 83 4.23445
r115 56 57 146.538
r116 52 57 5.58729
r117 52 54 246.154
r118 35 212 0.0477743
r119 35 207 0.0477743
r120 34 43 0.68
r121 34 40 8.27089
r122 34 43 11.07
r123 34 35 0.68
r124 30 31 146.154
r125 29 33 4.23445
r126 28 30 5.58729
r127 28 29 33.0769
r128 26 31 5.58729
r129 26 27 36.5385
r130 25 33 1.10046
r131 24 34 8.27089
r132 24 25 230.385
r133 20 32 4.23445
r134 20 22 64.2308
r135 16 27 5.58729
r136 16 18 90
r137 14 32 4.23445
r138 14 40 490.385
r139 12 32 1.10046
r140 12 13 103.077
r141 8 13 5.58729
r142 8 10 64.2308
r143 6 33 4.23445
r144 6 7 146.538
r145 2 7 5.58729
r146 2 4 246.154
.ends

.subckt PM_MUX81_IN6 1 3 71
r0 71 74 0.68
r1 66 74 0.0477743
r2 66 67 1.032
r3 58 60 0.0677543
r4 44 67 0.0477743
r5 40 43 0.0517569
r6 34 36 0.0625
r7 30 32 0.0725
r8 26 28 0.0775
r9 22 24 0.1375
r10 21 32 0.0046983
r11 21 43 0.4175
r12 15 38 0.0517569
r13 15 17 0.209231
r14 13 36 0.0046983
r15 13 38 0.2425
r16 12 24 0.0046983
r17 11 58 0.0717543
r18 11 12 0.115
r19 10 34 0.0046983
r20 9 28 0.0046983
r21 9 10 1.8775
r22 7 30 0.0046983
r23 7 60 2.72
r24 6 26 0.0046983
r25 5 22 0.0046983
r26 5 6 0.705
r27 4 58 0.68
r28 4 46 0.108444
r29 4 44 0.68
r30 4 40 15.61
r31 4 17 3.8825
r32 3 46 0.916356
r33 1 4 2.1105
.ends

.subckt PM_MUX81_IN7 1 3 70
r0 68 70 0.68
r1 62 68 0.0477743
r2 62 63 0.686
r3 39 63 0.0477743
r4 27 28 2.312
r5 25 26 0.642
r6 23 28 0.0446983
r7 23 24 0.14
r8 21 24 0.0446983
r9 21 22 0.258
r10 17 20 0.0517569
r11 14 36 0.0559551
r12 14 15 0.18
r13 13 15 0.0446983
r14 13 20 2.255
r15 7 31 0.0393755
r16 7 9 0.141538
r17 6 25 0.0477743
r18 6 36 0.68
r19 6 17 15.61
r20 5 27 0.0477743
r21 5 26 0.0477743
r22 5 39 0.68
r23 4 22 0.0477743
r24 4 31 0.68
r25 4 9 3.8825
r26 3 4 0.9272
r27 1 6 1.9095
.ends

.subckt PM_MUX81_15 1 3 52 54
r0 120 121 0.392
r1 118 121 0.0446983
r2 118 119 0.762
r3 116 119 0.0446983
r4 116 117 0.122
r5 114 117 0.0446983
r6 114 115 1.408
r7 90 120 0.0477743
r8 78 79 2.312
r9 76 77 0.642
r10 74 79 0.0446983
r11 74 75 0.14
r12 72 75 0.0446983
r13 72 73 0.258
r14 68 71 0.0517569
r15 65 87 0.0559551
r16 65 66 0.18
r17 64 66 0.0446983
r18 64 71 2.255
r19 58 82 0.0393755
r20 58 60 0.141538
r21 57 76 0.0477743
r22 57 87 0.68
r23 57 68 15.61
r24 56 78 0.0477743
r25 56 77 0.0477743
r26 56 90 0.68
r27 55 73 0.0477743
r28 55 82 0.68
r29 55 60 3.8825
r30 54 55 0.9272
r31 52 57 1.9095
r32 45 47 0.0687543
r33 32 115 0.0474984
r34 28 31 0.0517569
r35 22 24 0.125
r36 18 20 0.1275
r37 17 24 0.0046983
r38 17 31 3.81
r39 11 26 0.0517569
r40 11 13 0.209231
r41 9 20 0.0046983
r42 9 26 1.4825
r43 7 22 0.0046983
r44 7 47 0.12
r45 6 18 0.0046983
r46 5 45 0.0707543
r47 5 6 0.825
r48 4 45 0.68
r49 4 32 0.68
r50 4 28 15.61
r51 4 13 3.8825
r52 3 4 1.03564
r53 1 4 2.13283
.ends

.subckt PM_MUX81_S1 4 10 18 22 54 60 68 72 116
r0 116 119 0.68
r1 109 110 2.454
r2 108 119 0.0477743
r3 107 109 0.0446983
r4 107 108 2.084
r5 105 119 0.0477743
r6 105 106 3.12
r7 103 106 0.0446983
r8 103 104 2.454
r9 85 110 0.0477743
r10 84 93 0.68
r11 84 90 8.27089
r12 84 93 11.07
r13 84 85 0.68
r14 80 81 146.154
r15 79 83 4.23445
r16 78 80 5.58729
r17 78 79 33.0769
r18 76 81 5.58729
r19 76 77 36.5385
r20 75 83 1.10046
r21 74 84 8.27089
r22 74 75 230.385
r23 70 82 4.23445
r24 70 72 64.2308
r25 66 77 5.58729
r26 66 68 90
r27 64 82 4.23445
r28 64 90 490.385
r29 62 82 1.10046
r30 62 63 103.077
r31 58 63 5.58729
r32 58 60 64.2308
r33 56 83 4.23445
r34 56 57 146.538
r35 52 57 5.58729
r36 52 54 246.154
r37 35 104 0.0477743
r38 34 43 0.68
r39 34 40 8.27089
r40 34 43 11.07
r41 34 35 0.68
r42 30 31 146.154
r43 29 33 4.23445
r44 28 30 5.58729
r45 28 29 33.0769
r46 26 31 5.58729
r47 26 27 36.5385
r48 25 33 1.10046
r49 24 34 8.27089
r50 24 25 230.385
r51 20 32 4.23445
r52 20 22 64.2308
r53 16 27 5.58729
r54 16 18 90
r55 14 32 4.23445
r56 14 40 490.385
r57 12 32 1.10046
r58 12 13 103.077
r59 8 13 5.58729
r60 8 10 64.2308
r61 6 33 4.23445
r62 6 7 146.538
r63 2 7 5.58729
r64 2 4 246.154
.ends

.subckt PM_MUX81_17 1 3 52 54
r0 126 127 0.218
r1 124 127 0.0446983
r2 124 125 0.092
r3 122 125 0.0446983
r4 122 123 2.672
r5 120 123 0.0446983
r6 120 121 6.822
r7 119 121 0.0446983
r8 118 119 2.334
r9 109 111 0.0677543
r10 95 126 0.0477743
r11 91 94 0.0517569
r12 85 87 0.0625
r13 81 83 0.0725
r14 77 79 0.0775
r15 73 75 0.1375
r16 72 83 0.0046983
r17 72 94 0.4175
r18 66 89 0.0517569
r19 66 68 0.209231
r20 64 87 0.0046983
r21 64 89 0.2425
r22 63 75 0.0046983
r23 62 109 0.0717543
r24 62 63 0.115
r25 61 85 0.0046983
r26 60 79 0.0046983
r27 60 61 1.8775
r28 58 81 0.0046983
r29 58 111 2.72
r30 57 77 0.0046983
r31 56 73 0.0046983
r32 56 57 0.705
r33 55 109 0.68
r34 55 97 0.108444
r35 55 95 0.68
r36 55 91 15.61
r37 55 68 3.8825
r38 54 97 0.916356
r39 52 55 2.1105
r40 45 47 0.0687543
r41 32 118 0.0477743
r42 28 31 0.0517569
r43 22 24 0.125
r44 18 20 0.1275
r45 17 24 0.0046983
r46 17 31 3.81
r47 11 26 0.0517569
r48 11 13 0.209231
r49 9 20 0.0046983
r50 9 26 1.4825
r51 7 22 0.0046983
r52 7 47 0.12
r53 6 18 0.0046983
r54 5 45 0.0707543
r55 5 6 0.825
r56 4 45 0.68
r57 4 32 0.68
r58 4 28 15.61
r59 4 13 3.8825
r60 3 4 1.03564
r61 1 4 2.13283
.ends

.subckt PM_MUX81_OUT1 1 3 58
r0 58 61 0.68
r1 54 61 0.0477743
r2 53 54 1.382
r3 45 47 0.0687543
r4 32 53 0.0477743
r5 28 31 0.0517569
r6 22 24 0.125
r7 18 20 0.1275
r8 17 24 0.0046983
r9 17 31 3.81
r10 11 26 0.0517569
r11 11 13 0.209231
r12 9 20 0.0046983
r13 9 26 1.4825
r14 7 22 0.0046983
r15 7 47 0.12
r16 6 18 0.0046983
r17 5 45 0.0707543
r18 5 6 0.825
r19 4 45 0.68
r20 4 32 0.68
r21 4 28 15.61
r22 4 13 3.8825
r23 3 4 1.03564
r24 1 4 2.13283
.ends

.subckt PM_MUX81_19 1 3 52 54
r0 120 121 0.156
r1 118 120 0.0446983
r2 118 119 1.184
r3 116 119 0.0446983
r4 116 117 0.866
r5 114 117 0.0446983
r6 114 115 0.986
r7 90 121 0.0477743
r8 78 79 2.312
r9 76 77 0.642
r10 74 79 0.0446983
r11 74 75 0.14
r12 72 75 0.0446983
r13 72 73 0.258
r14 68 71 0.0517569
r15 65 87 0.0559551
r16 65 66 0.18
r17 64 66 0.0446983
r18 64 71 2.255
r19 58 82 0.0393755
r20 58 60 0.141538
r21 57 76 0.0477743
r22 57 87 0.68
r23 57 68 15.61
r24 56 78 0.0477743
r25 56 77 0.0477743
r26 56 90 0.68
r27 55 73 0.0477743
r28 55 82 0.68
r29 55 60 3.8825
r30 54 55 0.9272
r31 52 57 1.9095
r32 45 47 0.0687543
r33 32 115 0.0474984
r34 28 31 0.0517569
r35 22 24 0.125
r36 18 20 0.1275
r37 17 24 0.0046983
r38 17 31 3.81
r39 11 26 0.0517569
r40 11 13 0.209231
r41 9 20 0.0046983
r42 9 26 1.4825
r43 7 22 0.0046983
r44 7 47 0.12
r45 6 18 0.0046983
r46 5 45 0.0707543
r47 5 6 0.825
r48 4 45 0.68
r49 4 32 0.68
r50 4 28 15.61
r51 4 13 3.8825
r52 3 4 1.03564
r53 1 4 2.13283
.ends

.subckt PM_MUX81_S2 4 10 18 22 57
r0 57 60 0.68
r1 52 60 0.0477743
r2 52 53 1.308
r3 35 53 0.0477743
r4 34 43 0.68
r5 34 40 8.27089
r6 34 43 11.07
r7 34 35 0.68
r8 30 31 146.154
r9 29 33 4.23445
r10 28 30 5.58729
r11 28 29 33.0769
r12 26 31 5.58729
r13 26 27 36.5385
r14 25 33 1.10046
r15 24 34 8.27089
r16 24 25 230.385
r17 20 32 4.23445
r18 20 22 64.2308
r19 16 27 5.58729
r20 16 18 90
r21 14 32 4.23445
r22 14 40 490.385
r23 12 32 1.10046
r24 12 13 103.077
r25 8 13 5.58729
r26 8 10 64.2308
r27 6 33 4.23445
r28 6 7 146.538
r29 2 7 5.58729
r30 2 4 246.154
.ends

