* File: top.pex.netlist.pex
* Created: Mon Apr 29 13:37:22 2019
* Program "Calibre xRC"
* Version "v2012.2_36.25"
* Nominal Temperature: 27C
* Circuit Temperature: 27C
* 
.subckt PM_TOP_X9_X0_6 10 20 33 35
r0 65 68 0.0517569
r1 60 63 0.0517569
r2 55 57 0.145
r3 49 69 0.485
r4 44 69 0.0490438
r5 44 46 0.418462
r6 42 49 0.0446983
r7 42 63 0.465
r8 41 57 0.0046983
r9 41 68 0.525
r10 39 52 0.0517569
r11 38 55 0.0046983
r12 38 39 0.485
r13 37 60 11.07
r14 37 46 1.94125
r15 36 65 15.61
r16 36 52 11.07
r17 35 37 0.460889
r18 33 36 2.12167
r19 29 31 16.5385
r20 24 26 10
r21 22 31 0.587288
r22 22 23 94.6154
r23 18 26 0.587288
r24 18 20 67.6923
r25 17 29 0.587288
r26 16 28 4.23445
r27 16 17 185.769
r28 15 28 4.23445
r29 14 24 0.587288
r30 14 15 316.923
r31 12 23 5.58729
r32 12 13 68.8462
r33 8 37 8.27089
r34 8 10 120
r35 7 37 8.27089
r36 6 13 5.58729
r37 6 7 122.308
r38 4 28 1.10046
r39 4 5 64.6154
r40 3 5 5.58729
r41 2 36 8.27089
r42 2 3 195.385
.ends

.subckt PM_TOP_X9_X1_6 10 20 33 35
r0 65 68 0.0517569
r1 60 63 0.0517569
r2 55 57 0.145
r3 49 69 0.485
r4 44 69 0.0490438
r5 44 46 0.418462
r6 42 49 0.0446983
r7 42 63 0.465
r8 41 57 0.0046983
r9 41 68 0.525
r10 39 52 0.0517569
r11 38 55 0.0046983
r12 38 39 0.485
r13 37 60 11.07
r14 37 46 1.94125
r15 36 65 15.61
r16 36 52 11.07
r17 35 37 0.460889
r18 33 36 2.12167
r19 29 31 16.5385
r20 24 26 10
r21 22 31 0.587288
r22 22 23 94.6154
r23 18 26 0.587288
r24 18 20 67.6923
r25 17 29 0.587288
r26 16 28 4.23445
r27 16 17 185.769
r28 15 28 4.23445
r29 14 24 0.587288
r30 14 15 316.923
r31 12 23 5.58729
r32 12 13 68.8462
r33 8 37 8.27089
r34 8 10 120
r35 7 37 8.27089
r36 6 13 5.58729
r37 6 7 122.308
r38 4 28 1.10046
r39 4 5 64.6154
r40 3 5 5.58729
r41 2 36 8.27089
r42 2 3 195.385
.ends

.subckt PM_TOP_X9_X2_6 10 20 33 35
r0 65 68 0.0517569
r1 60 63 0.0517569
r2 55 57 0.145
r3 49 69 0.485
r4 44 69 0.0490438
r5 44 46 0.418462
r6 42 49 0.0446983
r7 42 63 0.465
r8 41 57 0.0046983
r9 41 68 0.525
r10 39 52 0.0517569
r11 38 55 0.0046983
r12 38 39 0.485
r13 37 60 11.07
r14 37 46 1.94125
r15 36 65 15.61
r16 36 52 11.07
r17 35 37 0.460889
r18 33 36 2.12167
r19 29 31 16.5385
r20 24 26 10
r21 22 31 0.587288
r22 22 23 94.6154
r23 18 26 0.587288
r24 18 20 67.6923
r25 17 29 0.587288
r26 16 28 4.23445
r27 16 17 185.769
r28 15 28 4.23445
r29 14 24 0.587288
r30 14 15 316.923
r31 12 23 5.58729
r32 12 13 68.8462
r33 8 37 8.27089
r34 8 10 120
r35 7 37 8.27089
r36 6 13 5.58729
r37 6 7 122.308
r38 4 28 1.10046
r39 4 5 64.6154
r40 3 5 5.58729
r41 2 36 8.27089
r42 2 3 195.385
.ends

.subckt PM_TOP_X9_X13_X0_6 10 20 33 35
r0 65 68 0.0517569
r1 60 63 0.0517569
r2 55 57 0.145
r3 49 69 0.485
r4 44 69 0.0490438
r5 44 46 0.418462
r6 42 49 0.0446983
r7 42 63 0.465
r8 41 57 0.0046983
r9 41 68 0.525
r10 39 52 0.0517569
r11 38 55 0.0046983
r12 38 39 0.485
r13 37 60 11.07
r14 37 46 1.94125
r15 36 65 15.61
r16 36 52 11.07
r17 35 37 0.460889
r18 33 36 2.12167
r19 29 31 16.5385
r20 24 26 10
r21 22 31 0.587288
r22 22 23 94.6154
r23 18 26 0.587288
r24 18 20 67.6923
r25 17 29 0.587288
r26 16 28 4.23445
r27 16 17 185.769
r28 15 28 4.23445
r29 14 24 0.587288
r30 14 15 316.923
r31 12 23 5.58729
r32 12 13 68.8462
r33 8 37 8.27089
r34 8 10 120
r35 7 37 8.27089
r36 6 13 5.58729
r37 6 7 122.308
r38 4 28 1.10046
r39 4 5 64.6154
r40 3 5 5.58729
r41 2 36 8.27089
r42 2 3 195.385
.ends

.subckt PM_TOP_X9_X13_X1_6 10 20 33 35
r0 65 68 0.0517569
r1 60 63 0.0517569
r2 55 57 0.145
r3 49 69 0.485
r4 44 69 0.0490438
r5 44 46 0.418462
r6 42 49 0.0446983
r7 42 63 0.465
r8 41 57 0.0046983
r9 41 68 0.525
r10 39 52 0.0517569
r11 38 55 0.0046983
r12 38 39 0.485
r13 37 60 11.07
r14 37 46 1.94125
r15 36 65 15.61
r16 36 52 11.07
r17 35 37 0.460889
r18 33 36 2.12167
r19 29 31 16.5385
r20 24 26 10
r21 22 31 0.587288
r22 22 23 94.6154
r23 18 26 0.587288
r24 18 20 67.6923
r25 17 29 0.587288
r26 16 28 4.23445
r27 16 17 185.769
r28 15 28 4.23445
r29 14 24 0.587288
r30 14 15 316.923
r31 12 23 5.58729
r32 12 13 68.8462
r33 8 37 8.27089
r34 8 10 120
r35 7 37 8.27089
r36 6 13 5.58729
r37 6 7 122.308
r38 4 28 1.10046
r39 4 5 64.6154
r40 3 5 5.58729
r41 2 36 8.27089
r42 2 3 195.385
.ends

.subckt PM_TOP_X9_X14_X0_6 10 20 33 35
r0 65 68 0.0517569
r1 60 63 0.0517569
r2 55 57 0.145
r3 49 69 0.485
r4 44 69 0.0490438
r5 44 46 0.418462
r6 42 49 0.0446983
r7 42 63 0.465
r8 41 57 0.0046983
r9 41 68 0.525
r10 39 52 0.0517569
r11 38 55 0.0046983
r12 38 39 0.485
r13 37 60 11.07
r14 37 46 1.94125
r15 36 65 15.61
r16 36 52 11.07
r17 35 37 0.460889
r18 33 36 2.12167
r19 29 31 16.5385
r20 24 26 10
r21 22 31 0.587288
r22 22 23 94.6154
r23 18 26 0.587288
r24 18 20 67.6923
r25 17 29 0.587288
r26 16 28 4.23445
r27 16 17 185.769
r28 15 28 4.23445
r29 14 24 0.587288
r30 14 15 316.923
r31 12 23 5.58729
r32 12 13 68.8462
r33 8 37 8.27089
r34 8 10 120
r35 7 37 8.27089
r36 6 13 5.58729
r37 6 7 122.308
r38 4 28 1.10046
r39 4 5 64.6154
r40 3 5 5.58729
r41 2 36 8.27089
r42 2 3 195.385
.ends

.subckt PM_TOP_X9_X14_X1_6 10 20 33 35
r0 65 68 0.0517569
r1 60 63 0.0517569
r2 55 57 0.145
r3 49 69 0.485
r4 44 69 0.0490438
r5 44 46 0.418462
r6 42 49 0.0446983
r7 42 63 0.465
r8 41 57 0.0046983
r9 41 68 0.525
r10 39 52 0.0517569
r11 38 55 0.0046983
r12 38 39 0.485
r13 37 60 11.07
r14 37 46 1.94125
r15 36 65 15.61
r16 36 52 11.07
r17 35 37 0.460889
r18 33 36 2.12167
r19 29 31 16.5385
r20 24 26 10
r21 22 31 0.587288
r22 22 23 94.6154
r23 18 26 0.587288
r24 18 20 67.6923
r25 17 29 0.587288
r26 16 28 4.23445
r27 16 17 185.769
r28 15 28 4.23445
r29 14 24 0.587288
r30 14 15 316.923
r31 12 23 5.58729
r32 12 13 68.8462
r33 8 37 8.27089
r34 8 10 120
r35 7 37 8.27089
r36 6 13 5.58729
r37 6 7 122.308
r38 4 28 1.10046
r39 4 5 64.6154
r40 3 5 5.58729
r41 2 36 8.27089
r42 2 3 195.385
.ends

.subckt PM_TOP_X9_X15_X0_6 10 20 33 35
r0 65 68 0.0517569
r1 60 63 0.0517569
r2 55 57 0.145
r3 49 69 0.485
r4 44 69 0.0490438
r5 44 46 0.418462
r6 42 49 0.0446983
r7 42 63 0.465
r8 41 57 0.0046983
r9 41 68 0.525
r10 39 52 0.0517569
r11 38 55 0.0046983
r12 38 39 0.485
r13 37 60 11.07
r14 37 46 1.94125
r15 36 65 15.61
r16 36 52 11.07
r17 35 37 0.460889
r18 33 36 2.12167
r19 29 31 16.5385
r20 24 26 10
r21 22 31 0.587288
r22 22 23 94.6154
r23 18 26 0.587288
r24 18 20 67.6923
r25 17 29 0.587288
r26 16 28 4.23445
r27 16 17 185.769
r28 15 28 4.23445
r29 14 24 0.587288
r30 14 15 316.923
r31 12 23 5.58729
r32 12 13 68.8462
r33 8 37 8.27089
r34 8 10 120
r35 7 37 8.27089
r36 6 13 5.58729
r37 6 7 122.308
r38 4 28 1.10046
r39 4 5 64.6154
r40 3 5 5.58729
r41 2 36 8.27089
r42 2 3 195.385
.ends

.subckt PM_TOP_X9_X15_X1_6 10 20 33 35
r0 65 68 0.0517569
r1 60 63 0.0517569
r2 55 57 0.145
r3 49 69 0.485
r4 44 69 0.0490438
r5 44 46 0.418462
r6 42 49 0.0446983
r7 42 63 0.465
r8 41 57 0.0046983
r9 41 68 0.525
r10 39 52 0.0517569
r11 38 55 0.0046983
r12 38 39 0.485
r13 37 60 11.07
r14 37 46 1.94125
r15 36 65 15.61
r16 36 52 11.07
r17 35 37 0.460889
r18 33 36 2.12167
r19 29 31 16.5385
r20 24 26 10
r21 22 31 0.587288
r22 22 23 94.6154
r23 18 26 0.587288
r24 18 20 67.6923
r25 17 29 0.587288
r26 16 28 4.23445
r27 16 17 185.769
r28 15 28 4.23445
r29 14 24 0.587288
r30 14 15 316.923
r31 12 23 5.58729
r32 12 13 68.8462
r33 8 37 8.27089
r34 8 10 120
r35 7 37 8.27089
r36 6 13 5.58729
r37 6 7 122.308
r38 4 28 1.10046
r39 4 5 64.6154
r40 3 5 5.58729
r41 2 36 8.27089
r42 2 3 195.385
.ends

.subckt PM_TOP_X9_X16_X0_6 10 20 33 35
r0 65 68 0.0517569
r1 60 63 0.0517569
r2 55 57 0.145
r3 49 69 0.485
r4 44 69 0.0490438
r5 44 46 0.418462
r6 42 49 0.0446983
r7 42 63 0.465
r8 41 57 0.0046983
r9 41 68 0.525
r10 39 52 0.0517569
r11 38 55 0.0046983
r12 38 39 0.485
r13 37 60 11.07
r14 37 46 1.94125
r15 36 65 15.61
r16 36 52 11.07
r17 35 37 0.460889
r18 33 36 2.12167
r19 29 31 16.5385
r20 24 26 10
r21 22 31 0.587288
r22 22 23 94.6154
r23 18 26 0.587288
r24 18 20 67.6923
r25 17 29 0.587288
r26 16 28 4.23445
r27 16 17 185.769
r28 15 28 4.23445
r29 14 24 0.587288
r30 14 15 316.923
r31 12 23 5.58729
r32 12 13 68.8462
r33 8 37 8.27089
r34 8 10 120
r35 7 37 8.27089
r36 6 13 5.58729
r37 6 7 122.308
r38 4 28 1.10046
r39 4 5 64.6154
r40 3 5 5.58729
r41 2 36 8.27089
r42 2 3 195.385
.ends

.subckt PM_TOP_X9_X16_X1_6 10 20 33 35
r0 65 68 0.0517569
r1 60 63 0.0517569
r2 55 57 0.145
r3 49 69 0.485
r4 44 69 0.0490438
r5 44 46 0.418462
r6 42 49 0.0446983
r7 42 63 0.465
r8 41 57 0.0046983
r9 41 68 0.525
r10 39 52 0.0517569
r11 38 55 0.0046983
r12 38 39 0.485
r13 37 60 11.07
r14 37 46 1.94125
r15 36 65 15.61
r16 36 52 11.07
r17 35 37 0.460889
r18 33 36 2.12167
r19 29 31 16.5385
r20 24 26 10
r21 22 31 0.587288
r22 22 23 94.6154
r23 18 26 0.587288
r24 18 20 67.6923
r25 17 29 0.587288
r26 16 28 4.23445
r27 16 17 185.769
r28 15 28 4.23445
r29 14 24 0.587288
r30 14 15 316.923
r31 12 23 5.58729
r32 12 13 68.8462
r33 8 37 8.27089
r34 8 10 120
r35 7 37 8.27089
r36 6 13 5.58729
r37 6 7 122.308
r38 4 28 1.10046
r39 4 5 64.6154
r40 3 5 5.58729
r41 2 36 8.27089
r42 2 3 195.385
.ends

.subckt PM_TOP_X9_X17_X0_6 10 20 33 35
r0 65 68 0.0517569
r1 60 63 0.0517569
r2 55 57 0.145
r3 49 69 0.485
r4 44 69 0.0490438
r5 44 46 0.418462
r6 42 49 0.0446983
r7 42 63 0.465
r8 41 57 0.0046983
r9 41 68 0.525
r10 39 52 0.0517569
r11 38 55 0.0046983
r12 38 39 0.485
r13 37 60 11.07
r14 37 46 1.94125
r15 36 65 15.61
r16 36 52 11.07
r17 35 37 0.460889
r18 33 36 2.12167
r19 29 31 16.5385
r20 24 26 10
r21 22 31 0.587288
r22 22 23 94.6154
r23 18 26 0.587288
r24 18 20 67.6923
r25 17 29 0.587288
r26 16 28 4.23445
r27 16 17 185.769
r28 15 28 4.23445
r29 14 24 0.587288
r30 14 15 316.923
r31 12 23 5.58729
r32 12 13 68.8462
r33 8 37 8.27089
r34 8 10 120
r35 7 37 8.27089
r36 6 13 5.58729
r37 6 7 122.308
r38 4 28 1.10046
r39 4 5 64.6154
r40 3 5 5.58729
r41 2 36 8.27089
r42 2 3 195.385
.ends

.subckt PM_TOP_X9_X17_X1_6 10 20 33 35
r0 65 68 0.0517569
r1 60 63 0.0517569
r2 55 57 0.145
r3 49 69 0.485
r4 44 69 0.0490438
r5 44 46 0.418462
r6 42 49 0.0446983
r7 42 63 0.465
r8 41 57 0.0046983
r9 41 68 0.525
r10 39 52 0.0517569
r11 38 55 0.0046983
r12 38 39 0.485
r13 37 60 11.07
r14 37 46 1.94125
r15 36 65 15.61
r16 36 52 11.07
r17 35 37 0.460889
r18 33 36 2.12167
r19 29 31 16.5385
r20 24 26 10
r21 22 31 0.587288
r22 22 23 94.6154
r23 18 26 0.587288
r24 18 20 67.6923
r25 17 29 0.587288
r26 16 28 4.23445
r27 16 17 185.769
r28 15 28 4.23445
r29 14 24 0.587288
r30 14 15 316.923
r31 12 23 5.58729
r32 12 13 68.8462
r33 8 37 8.27089
r34 8 10 120
r35 7 37 8.27089
r36 6 13 5.58729
r37 6 7 122.308
r38 4 28 1.10046
r39 4 5 64.6154
r40 3 5 5.58729
r41 2 36 8.27089
r42 2 3 195.385
.ends

.subckt PM_TOP_X4_X0_X28_6 10 20 33 35
r0 65 68 0.0517569
r1 60 63 0.0517569
r2 55 57 0.145
r3 49 69 0.485
r4 44 69 0.0490438
r5 44 46 0.418462
r6 42 49 0.0446983
r7 42 63 0.465
r8 41 57 0.0046983
r9 41 68 0.525
r10 39 52 0.0517569
r11 38 55 0.0046983
r12 38 39 0.485
r13 37 60 11.07
r14 37 46 1.94125
r15 36 65 15.61
r16 36 52 11.07
r17 35 37 0.460889
r18 33 36 2.12167
r19 29 31 16.5385
r20 24 26 10
r21 22 31 0.587288
r22 22 23 94.6154
r23 18 26 0.587288
r24 18 20 67.6923
r25 17 29 0.587288
r26 16 28 4.23445
r27 16 17 185.769
r28 15 28 4.23445
r29 14 24 0.587288
r30 14 15 316.923
r31 12 23 5.58729
r32 12 13 68.8462
r33 8 37 8.27089
r34 8 10 120
r35 7 37 8.27089
r36 6 13 5.58729
r37 6 7 122.308
r38 4 28 1.10046
r39 4 5 64.6154
r40 3 5 5.58729
r41 2 36 8.27089
r42 2 3 195.385
.ends

.subckt PM_TOP_X5_X0_X28_6 10 20 33 35
r0 65 68 0.0517569
r1 60 63 0.0517569
r2 55 57 0.145
r3 49 69 0.485
r4 44 69 0.0490438
r5 44 46 0.418462
r6 42 49 0.0446983
r7 42 63 0.465
r8 41 57 0.0046983
r9 41 68 0.525
r10 39 52 0.0517569
r11 38 55 0.0046983
r12 38 39 0.485
r13 37 60 11.07
r14 37 46 1.94125
r15 36 65 15.61
r16 36 52 11.07
r17 35 37 0.460889
r18 33 36 2.12167
r19 29 31 16.5385
r20 24 26 10
r21 22 31 0.587288
r22 22 23 94.6154
r23 18 26 0.587288
r24 18 20 67.6923
r25 17 29 0.587288
r26 16 28 4.23445
r27 16 17 185.769
r28 15 28 4.23445
r29 14 24 0.587288
r30 14 15 316.923
r31 12 23 5.58729
r32 12 13 68.8462
r33 8 37 8.27089
r34 8 10 120
r35 7 37 8.27089
r36 6 13 5.58729
r37 6 7 122.308
r38 4 28 1.10046
r39 4 5 64.6154
r40 3 5 5.58729
r41 2 36 8.27089
r42 2 3 195.385
.ends

.subckt PM_TOP_X6_X0_X28_6 10 20 33 35
r0 65 68 0.0517569
r1 60 63 0.0517569
r2 55 57 0.145
r3 49 69 0.485
r4 44 69 0.0490438
r5 44 46 0.418462
r6 42 49 0.0446983
r7 42 63 0.465
r8 41 57 0.0046983
r9 41 68 0.525
r10 39 52 0.0517569
r11 38 55 0.0046983
r12 38 39 0.485
r13 37 60 11.07
r14 37 46 1.94125
r15 36 65 15.61
r16 36 52 11.07
r17 35 37 0.460889
r18 33 36 2.12167
r19 29 31 16.5385
r20 24 26 10
r21 22 31 0.587288
r22 22 23 94.6154
r23 18 26 0.587288
r24 18 20 67.6923
r25 17 29 0.587288
r26 16 28 4.23445
r27 16 17 185.769
r28 15 28 4.23445
r29 14 24 0.587288
r30 14 15 316.923
r31 12 23 5.58729
r32 12 13 68.8462
r33 8 37 8.27089
r34 8 10 120
r35 7 37 8.27089
r36 6 13 5.58729
r37 6 7 122.308
r38 4 28 1.10046
r39 4 5 64.6154
r40 3 5 5.58729
r41 2 36 8.27089
r42 2 3 195.385
.ends

.subckt PM_TOP_X7_X0_X28_6 10 20 33 35
r0 65 68 0.0517569
r1 60 63 0.0517569
r2 55 57 0.145
r3 49 69 0.485
r4 44 69 0.0490438
r5 44 46 0.418462
r6 42 49 0.0446983
r7 42 63 0.465
r8 41 57 0.0046983
r9 41 68 0.525
r10 39 52 0.0517569
r11 38 55 0.0046983
r12 38 39 0.485
r13 37 60 11.07
r14 37 46 1.94125
r15 36 65 15.61
r16 36 52 11.07
r17 35 37 0.460889
r18 33 36 2.12167
r19 29 31 16.5385
r20 24 26 10
r21 22 31 0.587288
r22 22 23 94.6154
r23 18 26 0.587288
r24 18 20 67.6923
r25 17 29 0.587288
r26 16 28 4.23445
r27 16 17 185.769
r28 15 28 4.23445
r29 14 24 0.587288
r30 14 15 316.923
r31 12 23 5.58729
r32 12 13 68.8462
r33 8 37 8.27089
r34 8 10 120
r35 7 37 8.27089
r36 6 13 5.58729
r37 6 7 122.308
r38 4 28 1.10046
r39 4 5 64.6154
r40 3 5 5.58729
r41 2 36 8.27089
r42 2 3 195.385
.ends

.subckt PM_TOP_X0_7 6 12 16 18
r0 54 56 0.0475
r1 41 62 0.0338756
r2 41 42 1.705
r3 40 62 0.0338756
r4 39 59 0.0517569
r5 39 40 1.0625
r6 37 56 0.0046983
r7 37 38 0.77
r8 32 38 0.0458784
r9 32 34 0.209231
r10 31 54 0.0046983
r11 30 52 0.0517569
r12 30 31 0.11
r13 29 52 0.0517569
r14 28 29 0.9075
r15 27 48 0.0517569
r16 26 62 0.00880368
r17 26 27 0.35
r18 25 44 0.0234599
r19 24 42 0.0446983
r20 24 25 0.6525
r21 22 28 0.0446983
r22 22 23 0.625
r23 21 23 0.0446983
r24 20 44 0.0517569
r25 20 21 1.5675
r26 19 59 15.61
r27 19 52 11.07
r28 19 48 11.07
r29 19 44 11.07
r30 19 34 3.8825
r31 18 19 0.921778
r32 16 19 1.89833
r33 14 19 8.27089
r34 14 15 109.615
r35 10 15 5.58729
r36 10 12 201.923
r37 8 19 8.27089
r38 8 9 86.1538
r39 4 9 5.58729
r40 4 6 174.615
.ends

.subckt PM_TOP_X1_7 6 12 16 18
r0 54 56 0.0475
r1 41 62 0.0338756
r2 41 42 1.705
r3 40 62 0.0338756
r4 39 59 0.0517569
r5 39 40 1.0625
r6 37 56 0.0046983
r7 37 38 0.77
r8 32 38 0.0458784
r9 32 34 0.209231
r10 31 54 0.0046983
r11 30 52 0.0517569
r12 30 31 0.11
r13 29 52 0.0517569
r14 28 29 0.9075
r15 27 48 0.0517569
r16 26 62 0.00880368
r17 26 27 0.35
r18 25 44 0.0234599
r19 24 42 0.0446983
r20 24 25 0.6525
r21 22 28 0.0446983
r22 22 23 0.625
r23 21 23 0.0446983
r24 20 44 0.0517569
r25 20 21 1.5675
r26 19 59 15.61
r27 19 52 11.07
r28 19 48 11.07
r29 19 44 11.07
r30 19 34 3.8825
r31 18 19 0.921778
r32 16 19 1.89833
r33 14 19 8.27089
r34 14 15 109.615
r35 10 15 5.58729
r36 10 12 201.923
r37 8 19 8.27089
r38 8 9 86.1538
r39 4 9 5.58729
r40 4 6 174.615
.ends

.subckt PM_TOP_X2_7 6 12 16 18
r0 54 56 0.0475
r1 41 62 0.0338756
r2 41 42 1.705
r3 40 62 0.0338756
r4 39 59 0.0517569
r5 39 40 1.0625
r6 37 56 0.0046983
r7 37 38 0.77
r8 32 38 0.0458784
r9 32 34 0.209231
r10 31 54 0.0046983
r11 30 52 0.0517569
r12 30 31 0.11
r13 29 52 0.0517569
r14 28 29 0.9075
r15 27 48 0.0517569
r16 26 62 0.00880368
r17 26 27 0.35
r18 25 44 0.0234599
r19 24 42 0.0446983
r20 24 25 0.6525
r21 22 28 0.0446983
r22 22 23 0.625
r23 21 23 0.0446983
r24 20 44 0.0517569
r25 20 21 1.5675
r26 19 59 15.61
r27 19 52 11.07
r28 19 48 11.07
r29 19 44 11.07
r30 19 34 3.8825
r31 18 19 0.921778
r32 16 19 1.89833
r33 14 19 8.27089
r34 14 15 109.615
r35 10 15 5.58729
r36 10 12 201.923
r37 8 19 8.27089
r38 8 9 86.1538
r39 4 9 5.58729
r40 4 6 174.615
.ends

.subckt PM_TOP_X3_7 6 12 16 18
r0 54 56 0.0475
r1 41 62 0.0338756
r2 41 42 1.705
r3 40 62 0.0338756
r4 39 59 0.0517569
r5 39 40 1.0625
r6 37 56 0.0046983
r7 37 38 0.77
r8 32 38 0.0458784
r9 32 34 0.209231
r10 31 54 0.0046983
r11 30 52 0.0517569
r12 30 31 0.11
r13 29 52 0.0517569
r14 28 29 0.9075
r15 27 48 0.0517569
r16 26 62 0.00880368
r17 26 27 0.35
r18 25 44 0.0234599
r19 24 42 0.0446983
r20 24 25 0.6525
r21 22 28 0.0446983
r22 22 23 0.625
r23 21 23 0.0446983
r24 20 44 0.0517569
r25 20 21 1.5675
r26 19 59 15.61
r27 19 52 11.07
r28 19 48 11.07
r29 19 44 11.07
r30 19 34 3.8825
r31 18 19 0.921778
r32 16 19 1.89833
r33 14 19 8.27089
r34 14 15 109.615
r35 10 15 5.58729
r36 10 12 201.923
r37 8 19 8.27089
r38 8 9 86.1538
r39 4 9 5.58729
r40 4 6 174.615
.ends

.subckt PM_TOP_X4_X1_X8_X0_7 6 12 16 18
r0 54 56 0.0475
r1 41 62 0.0338756
r2 41 42 1.705
r3 40 62 0.0338756
r4 39 59 0.0517569
r5 39 40 1.0625
r6 37 56 0.0046983
r7 37 38 0.77
r8 32 38 0.0458784
r9 32 34 0.209231
r10 31 54 0.0046983
r11 30 52 0.0517569
r12 30 31 0.11
r13 29 52 0.0517569
r14 28 29 0.9075
r15 27 48 0.0517569
r16 26 62 0.00880368
r17 26 27 0.35
r18 25 44 0.0234599
r19 24 42 0.0446983
r20 24 25 0.6525
r21 22 28 0.0446983
r22 22 23 0.625
r23 21 23 0.0446983
r24 20 44 0.0517569
r25 20 21 1.5675
r26 19 59 15.61
r27 19 52 11.07
r28 19 48 11.07
r29 19 44 11.07
r30 19 34 3.8825
r31 18 19 0.921778
r32 16 19 1.89833
r33 14 19 8.27089
r34 14 15 109.615
r35 10 15 5.58729
r36 10 12 201.923
r37 8 19 8.27089
r38 8 9 86.1538
r39 4 9 5.58729
r40 4 6 174.615
.ends

.subckt PM_TOP_X4_X1_X8_X1_7 6 12 16 18
r0 54 56 0.0475
r1 41 62 0.0338756
r2 41 42 1.705
r3 40 62 0.0338756
r4 39 59 0.0517569
r5 39 40 1.0625
r6 37 56 0.0046983
r7 37 38 0.77
r8 32 38 0.0458784
r9 32 34 0.209231
r10 31 54 0.0046983
r11 30 52 0.0517569
r12 30 31 0.11
r13 29 52 0.0517569
r14 28 29 0.9075
r15 27 48 0.0517569
r16 26 62 0.00880368
r17 26 27 0.35
r18 25 44 0.0234599
r19 24 42 0.0446983
r20 24 25 0.6525
r21 22 28 0.0446983
r22 22 23 0.625
r23 21 23 0.0446983
r24 20 44 0.0517569
r25 20 21 1.5675
r26 19 59 15.61
r27 19 52 11.07
r28 19 48 11.07
r29 19 44 11.07
r30 19 34 3.8825
r31 18 19 0.921778
r32 16 19 1.89833
r33 14 19 8.27089
r34 14 15 109.615
r35 10 15 5.58729
r36 10 12 201.923
r37 8 19 8.27089
r38 8 9 86.1538
r39 4 9 5.58729
r40 4 6 174.615
.ends

.subckt PM_TOP_X4_X1_X8_X2_7 6 12 16 18
r0 54 56 0.0475
r1 41 62 0.0338756
r2 41 42 1.705
r3 40 62 0.0338756
r4 39 59 0.0517569
r5 39 40 1.0625
r6 37 56 0.0046983
r7 37 38 0.77
r8 32 38 0.0458784
r9 32 34 0.209231
r10 31 54 0.0046983
r11 30 52 0.0517569
r12 30 31 0.11
r13 29 52 0.0517569
r14 28 29 0.9075
r15 27 48 0.0517569
r16 26 62 0.00880368
r17 26 27 0.35
r18 25 44 0.0234599
r19 24 42 0.0446983
r20 24 25 0.6525
r21 22 28 0.0446983
r22 22 23 0.625
r23 21 23 0.0446983
r24 20 44 0.0517569
r25 20 21 1.5675
r26 19 59 15.61
r27 19 52 11.07
r28 19 48 11.07
r29 19 44 11.07
r30 19 34 3.8825
r31 18 19 0.921778
r32 16 19 1.89833
r33 14 19 8.27089
r34 14 15 109.615
r35 10 15 5.58729
r36 10 12 201.923
r37 8 19 8.27089
r38 8 9 86.1538
r39 4 9 5.58729
r40 4 6 174.615
.ends

.subckt PM_TOP_X4_X1_X8_X3_7 6 12 16 18
r0 54 56 0.0475
r1 41 62 0.0338756
r2 41 42 1.705
r3 40 62 0.0338756
r4 39 59 0.0517569
r5 39 40 1.0625
r6 37 56 0.0046983
r7 37 38 0.77
r8 32 38 0.0458784
r9 32 34 0.209231
r10 31 54 0.0046983
r11 30 52 0.0517569
r12 30 31 0.11
r13 29 52 0.0517569
r14 28 29 0.9075
r15 27 48 0.0517569
r16 26 62 0.00880368
r17 26 27 0.35
r18 25 44 0.0234599
r19 24 42 0.0446983
r20 24 25 0.6525
r21 22 28 0.0446983
r22 22 23 0.625
r23 21 23 0.0446983
r24 20 44 0.0517569
r25 20 21 1.5675
r26 19 59 15.61
r27 19 52 11.07
r28 19 48 11.07
r29 19 44 11.07
r30 19 34 3.8825
r31 18 19 0.921778
r32 16 19 1.89833
r33 14 19 8.27089
r34 14 15 109.615
r35 10 15 5.58729
r36 10 12 201.923
r37 8 19 8.27089
r38 8 9 86.1538
r39 4 9 5.58729
r40 4 6 174.615
.ends

.subckt PM_TOP_X4_X1_X8_X4_7 6 12 16 18
r0 54 56 0.0475
r1 41 62 0.0338756
r2 41 42 1.705
r3 40 62 0.0338756
r4 39 59 0.0517569
r5 39 40 1.0625
r6 37 56 0.0046983
r7 37 38 0.77
r8 32 38 0.0458784
r9 32 34 0.209231
r10 31 54 0.0046983
r11 30 52 0.0517569
r12 30 31 0.11
r13 29 52 0.0517569
r14 28 29 0.9075
r15 27 48 0.0517569
r16 26 62 0.00880368
r17 26 27 0.35
r18 25 44 0.0234599
r19 24 42 0.0446983
r20 24 25 0.6525
r21 22 28 0.0446983
r22 22 23 0.625
r23 21 23 0.0446983
r24 20 44 0.0517569
r25 20 21 1.5675
r26 19 59 15.61
r27 19 52 11.07
r28 19 48 11.07
r29 19 44 11.07
r30 19 34 3.8825
r31 18 19 0.921778
r32 16 19 1.89833
r33 14 19 8.27089
r34 14 15 109.615
r35 10 15 5.58729
r36 10 12 201.923
r37 8 19 8.27089
r38 8 9 86.1538
r39 4 9 5.58729
r40 4 6 174.615
.ends

.subckt PM_TOP_X4_X1_X8_X5_7 6 12 16 18
r0 54 56 0.0475
r1 41 62 0.0338756
r2 41 42 1.705
r3 40 62 0.0338756
r4 39 59 0.0517569
r5 39 40 1.0625
r6 37 56 0.0046983
r7 37 38 0.77
r8 32 38 0.0458784
r9 32 34 0.209231
r10 31 54 0.0046983
r11 30 52 0.0517569
r12 30 31 0.11
r13 29 52 0.0517569
r14 28 29 0.9075
r15 27 48 0.0517569
r16 26 62 0.00880368
r17 26 27 0.35
r18 25 44 0.0234599
r19 24 42 0.0446983
r20 24 25 0.6525
r21 22 28 0.0446983
r22 22 23 0.625
r23 21 23 0.0446983
r24 20 44 0.0517569
r25 20 21 1.5675
r26 19 59 15.61
r27 19 52 11.07
r28 19 48 11.07
r29 19 44 11.07
r30 19 34 3.8825
r31 18 19 0.921778
r32 16 19 1.89833
r33 14 19 8.27089
r34 14 15 109.615
r35 10 15 5.58729
r36 10 12 201.923
r37 8 19 8.27089
r38 8 9 86.1538
r39 4 9 5.58729
r40 4 6 174.615
.ends

.subckt PM_TOP_X4_X1_X8_X6_7 6 12 16 18
r0 54 56 0.0475
r1 41 62 0.0338756
r2 41 42 1.705
r3 40 62 0.0338756
r4 39 59 0.0517569
r5 39 40 1.0625
r6 37 56 0.0046983
r7 37 38 0.77
r8 32 38 0.0458784
r9 32 34 0.209231
r10 31 54 0.0046983
r11 30 52 0.0517569
r12 30 31 0.11
r13 29 52 0.0517569
r14 28 29 0.9075
r15 27 48 0.0517569
r16 26 62 0.00880368
r17 26 27 0.35
r18 25 44 0.0234599
r19 24 42 0.0446983
r20 24 25 0.6525
r21 22 28 0.0446983
r22 22 23 0.625
r23 21 23 0.0446983
r24 20 44 0.0517569
r25 20 21 1.5675
r26 19 59 15.61
r27 19 52 11.07
r28 19 48 11.07
r29 19 44 11.07
r30 19 34 3.8825
r31 18 19 0.921778
r32 16 19 1.89833
r33 14 19 8.27089
r34 14 15 109.615
r35 10 15 5.58729
r36 10 12 201.923
r37 8 19 8.27089
r38 8 9 86.1538
r39 4 9 5.58729
r40 4 6 174.615
.ends

.subckt PM_TOP_X4_X1_X9_X0_7 6 12 16 18
r0 54 56 0.0475
r1 41 62 0.0338756
r2 41 42 1.705
r3 40 62 0.0338756
r4 39 59 0.0517569
r5 39 40 1.0625
r6 37 56 0.0046983
r7 37 38 0.77
r8 32 38 0.0458784
r9 32 34 0.209231
r10 31 54 0.0046983
r11 30 52 0.0517569
r12 30 31 0.11
r13 29 52 0.0517569
r14 28 29 0.9075
r15 27 48 0.0517569
r16 26 62 0.00880368
r17 26 27 0.35
r18 25 44 0.0234599
r19 24 42 0.0446983
r20 24 25 0.6525
r21 22 28 0.0446983
r22 22 23 0.625
r23 21 23 0.0446983
r24 20 44 0.0517569
r25 20 21 1.5675
r26 19 59 15.61
r27 19 52 11.07
r28 19 48 11.07
r29 19 44 11.07
r30 19 34 3.8825
r31 18 19 0.921778
r32 16 19 1.89833
r33 14 19 8.27089
r34 14 15 109.615
r35 10 15 5.58729
r36 10 12 201.923
r37 8 19 8.27089
r38 8 9 86.1538
r39 4 9 5.58729
r40 4 6 174.615
.ends

.subckt PM_TOP_X4_X1_X9_X1_7 6 12 16 18
r0 54 56 0.0475
r1 41 62 0.0338756
r2 41 42 1.705
r3 40 62 0.0338756
r4 39 59 0.0517569
r5 39 40 1.0625
r6 37 56 0.0046983
r7 37 38 0.77
r8 32 38 0.0458784
r9 32 34 0.209231
r10 31 54 0.0046983
r11 30 52 0.0517569
r12 30 31 0.11
r13 29 52 0.0517569
r14 28 29 0.9075
r15 27 48 0.0517569
r16 26 62 0.00880368
r17 26 27 0.35
r18 25 44 0.0234599
r19 24 42 0.0446983
r20 24 25 0.6525
r21 22 28 0.0446983
r22 22 23 0.625
r23 21 23 0.0446983
r24 20 44 0.0517569
r25 20 21 1.5675
r26 19 59 15.61
r27 19 52 11.07
r28 19 48 11.07
r29 19 44 11.07
r30 19 34 3.8825
r31 18 19 0.921778
r32 16 19 1.89833
r33 14 19 8.27089
r34 14 15 109.615
r35 10 15 5.58729
r36 10 12 201.923
r37 8 19 8.27089
r38 8 9 86.1538
r39 4 9 5.58729
r40 4 6 174.615
.ends

.subckt PM_TOP_X4_X1_X9_X2_7 6 12 16 18
r0 54 56 0.0475
r1 41 62 0.0338756
r2 41 42 1.705
r3 40 62 0.0338756
r4 39 59 0.0517569
r5 39 40 1.0625
r6 37 56 0.0046983
r7 37 38 0.77
r8 32 38 0.0458784
r9 32 34 0.209231
r10 31 54 0.0046983
r11 30 52 0.0517569
r12 30 31 0.11
r13 29 52 0.0517569
r14 28 29 0.9075
r15 27 48 0.0517569
r16 26 62 0.00880368
r17 26 27 0.35
r18 25 44 0.0234599
r19 24 42 0.0446983
r20 24 25 0.6525
r21 22 28 0.0446983
r22 22 23 0.625
r23 21 23 0.0446983
r24 20 44 0.0517569
r25 20 21 1.5675
r26 19 59 15.61
r27 19 52 11.07
r28 19 48 11.07
r29 19 44 11.07
r30 19 34 3.8825
r31 18 19 0.921778
r32 16 19 1.89833
r33 14 19 8.27089
r34 14 15 109.615
r35 10 15 5.58729
r36 10 12 201.923
r37 8 19 8.27089
r38 8 9 86.1538
r39 4 9 5.58729
r40 4 6 174.615
.ends

.subckt PM_TOP_X4_X1_X9_X3_7 6 12 16 18
r0 54 56 0.0475
r1 41 62 0.0338756
r2 41 42 1.705
r3 40 62 0.0338756
r4 39 59 0.0517569
r5 39 40 1.0625
r6 37 56 0.0046983
r7 37 38 0.77
r8 32 38 0.0458784
r9 32 34 0.209231
r10 31 54 0.0046983
r11 30 52 0.0517569
r12 30 31 0.11
r13 29 52 0.0517569
r14 28 29 0.9075
r15 27 48 0.0517569
r16 26 62 0.00880368
r17 26 27 0.35
r18 25 44 0.0234599
r19 24 42 0.0446983
r20 24 25 0.6525
r21 22 28 0.0446983
r22 22 23 0.625
r23 21 23 0.0446983
r24 20 44 0.0517569
r25 20 21 1.5675
r26 19 59 15.61
r27 19 52 11.07
r28 19 48 11.07
r29 19 44 11.07
r30 19 34 3.8825
r31 18 19 0.921778
r32 16 19 1.89833
r33 14 19 8.27089
r34 14 15 109.615
r35 10 15 5.58729
r36 10 12 201.923
r37 8 19 8.27089
r38 8 9 86.1538
r39 4 9 5.58729
r40 4 6 174.615
.ends

.subckt PM_TOP_X4_X1_X9_X4_7 6 12 16 18
r0 54 56 0.0475
r1 41 62 0.0338756
r2 41 42 1.705
r3 40 62 0.0338756
r4 39 59 0.0517569
r5 39 40 1.0625
r6 37 56 0.0046983
r7 37 38 0.77
r8 32 38 0.0458784
r9 32 34 0.209231
r10 31 54 0.0046983
r11 30 52 0.0517569
r12 30 31 0.11
r13 29 52 0.0517569
r14 28 29 0.9075
r15 27 48 0.0517569
r16 26 62 0.00880368
r17 26 27 0.35
r18 25 44 0.0234599
r19 24 42 0.0446983
r20 24 25 0.6525
r21 22 28 0.0446983
r22 22 23 0.625
r23 21 23 0.0446983
r24 20 44 0.0517569
r25 20 21 1.5675
r26 19 59 15.61
r27 19 52 11.07
r28 19 48 11.07
r29 19 44 11.07
r30 19 34 3.8825
r31 18 19 0.921778
r32 16 19 1.89833
r33 14 19 8.27089
r34 14 15 109.615
r35 10 15 5.58729
r36 10 12 201.923
r37 8 19 8.27089
r38 8 9 86.1538
r39 4 9 5.58729
r40 4 6 174.615
.ends

.subckt PM_TOP_X4_X1_X9_X5_7 6 12 16 18
r0 54 56 0.0475
r1 41 62 0.0338756
r2 41 42 1.705
r3 40 62 0.0338756
r4 39 59 0.0517569
r5 39 40 1.0625
r6 37 56 0.0046983
r7 37 38 0.77
r8 32 38 0.0458784
r9 32 34 0.209231
r10 31 54 0.0046983
r11 30 52 0.0517569
r12 30 31 0.11
r13 29 52 0.0517569
r14 28 29 0.9075
r15 27 48 0.0517569
r16 26 62 0.00880368
r17 26 27 0.35
r18 25 44 0.0234599
r19 24 42 0.0446983
r20 24 25 0.6525
r21 22 28 0.0446983
r22 22 23 0.625
r23 21 23 0.0446983
r24 20 44 0.0517569
r25 20 21 1.5675
r26 19 59 15.61
r27 19 52 11.07
r28 19 48 11.07
r29 19 44 11.07
r30 19 34 3.8825
r31 18 19 0.921778
r32 16 19 1.89833
r33 14 19 8.27089
r34 14 15 109.615
r35 10 15 5.58729
r36 10 12 201.923
r37 8 19 8.27089
r38 8 9 86.1538
r39 4 9 5.58729
r40 4 6 174.615
.ends

.subckt PM_TOP_X4_X1_X9_X6_7 6 12 16 18
r0 54 56 0.0475
r1 41 62 0.0338756
r2 41 42 1.705
r3 40 62 0.0338756
r4 39 59 0.0517569
r5 39 40 1.0625
r6 37 56 0.0046983
r7 37 38 0.77
r8 32 38 0.0458784
r9 32 34 0.209231
r10 31 54 0.0046983
r11 30 52 0.0517569
r12 30 31 0.11
r13 29 52 0.0517569
r14 28 29 0.9075
r15 27 48 0.0517569
r16 26 62 0.00880368
r17 26 27 0.35
r18 25 44 0.0234599
r19 24 42 0.0446983
r20 24 25 0.6525
r21 22 28 0.0446983
r22 22 23 0.625
r23 21 23 0.0446983
r24 20 44 0.0517569
r25 20 21 1.5675
r26 19 59 15.61
r27 19 52 11.07
r28 19 48 11.07
r29 19 44 11.07
r30 19 34 3.8825
r31 18 19 0.921778
r32 16 19 1.89833
r33 14 19 8.27089
r34 14 15 109.615
r35 10 15 5.58729
r36 10 12 201.923
r37 8 19 8.27089
r38 8 9 86.1538
r39 4 9 5.58729
r40 4 6 174.615
.ends

.subckt PM_TOP_X5_X1_X8_X0_7 6 12 16 18
r0 54 56 0.0475
r1 41 62 0.0338756
r2 41 42 1.705
r3 40 62 0.0338756
r4 39 59 0.0517569
r5 39 40 1.0625
r6 37 56 0.0046983
r7 37 38 0.77
r8 32 38 0.0458784
r9 32 34 0.209231
r10 31 54 0.0046983
r11 30 52 0.0517569
r12 30 31 0.11
r13 29 52 0.0517569
r14 28 29 0.9075
r15 27 48 0.0517569
r16 26 62 0.00880368
r17 26 27 0.35
r18 25 44 0.0234599
r19 24 42 0.0446983
r20 24 25 0.6525
r21 22 28 0.0446983
r22 22 23 0.625
r23 21 23 0.0446983
r24 20 44 0.0517569
r25 20 21 1.5675
r26 19 59 15.61
r27 19 52 11.07
r28 19 48 11.07
r29 19 44 11.07
r30 19 34 3.8825
r31 18 19 0.921778
r32 16 19 1.89833
r33 14 19 8.27089
r34 14 15 109.615
r35 10 15 5.58729
r36 10 12 201.923
r37 8 19 8.27089
r38 8 9 86.1538
r39 4 9 5.58729
r40 4 6 174.615
.ends

.subckt PM_TOP_X5_X1_X8_X1_7 6 12 16 18
r0 54 56 0.0475
r1 41 62 0.0338756
r2 41 42 1.705
r3 40 62 0.0338756
r4 39 59 0.0517569
r5 39 40 1.0625
r6 37 56 0.0046983
r7 37 38 0.77
r8 32 38 0.0458784
r9 32 34 0.209231
r10 31 54 0.0046983
r11 30 52 0.0517569
r12 30 31 0.11
r13 29 52 0.0517569
r14 28 29 0.9075
r15 27 48 0.0517569
r16 26 62 0.00880368
r17 26 27 0.35
r18 25 44 0.0234599
r19 24 42 0.0446983
r20 24 25 0.6525
r21 22 28 0.0446983
r22 22 23 0.625
r23 21 23 0.0446983
r24 20 44 0.0517569
r25 20 21 1.5675
r26 19 59 15.61
r27 19 52 11.07
r28 19 48 11.07
r29 19 44 11.07
r30 19 34 3.8825
r31 18 19 0.921778
r32 16 19 1.89833
r33 14 19 8.27089
r34 14 15 109.615
r35 10 15 5.58729
r36 10 12 201.923
r37 8 19 8.27089
r38 8 9 86.1538
r39 4 9 5.58729
r40 4 6 174.615
.ends

.subckt PM_TOP_X5_X1_X8_X2_7 6 12 16 18
r0 54 56 0.0475
r1 41 62 0.0338756
r2 41 42 1.705
r3 40 62 0.0338756
r4 39 59 0.0517569
r5 39 40 1.0625
r6 37 56 0.0046983
r7 37 38 0.77
r8 32 38 0.0458784
r9 32 34 0.209231
r10 31 54 0.0046983
r11 30 52 0.0517569
r12 30 31 0.11
r13 29 52 0.0517569
r14 28 29 0.9075
r15 27 48 0.0517569
r16 26 62 0.00880368
r17 26 27 0.35
r18 25 44 0.0234599
r19 24 42 0.0446983
r20 24 25 0.6525
r21 22 28 0.0446983
r22 22 23 0.625
r23 21 23 0.0446983
r24 20 44 0.0517569
r25 20 21 1.5675
r26 19 59 15.61
r27 19 52 11.07
r28 19 48 11.07
r29 19 44 11.07
r30 19 34 3.8825
r31 18 19 0.921778
r32 16 19 1.89833
r33 14 19 8.27089
r34 14 15 109.615
r35 10 15 5.58729
r36 10 12 201.923
r37 8 19 8.27089
r38 8 9 86.1538
r39 4 9 5.58729
r40 4 6 174.615
.ends

.subckt PM_TOP_X5_X1_X8_X3_7 6 12 16 18
r0 54 56 0.0475
r1 41 62 0.0338756
r2 41 42 1.705
r3 40 62 0.0338756
r4 39 59 0.0517569
r5 39 40 1.0625
r6 37 56 0.0046983