* File: decoder.pex.netlist.pex
* Created: Mon Apr 15 15:07:11 2019
* Program "Calibre xRC"
* Version "v2012.2_36.25"
* Nominal Temperature: 27C
* Circuit Temperature: 27C
* 
.subckt PM_DECODER_X0_X0_6 6 10 28 30
r0 78 121 0.017931
r1 69 70 0.146
r2 67 68 0.534
r3 61 63 0.0525
r4 56 66 0.0517569
r5 56 58 0.209231
r6 54 65 0.101866
r7 54 66 0.28
r8 52 121 0.0276608
r9 52 53 0.105
r10 50 51 0.2975
r11 48 65 0.0174182
r12 48 49 0.1175
r13 43 50 0.0458784
r14 43 45 0.104615
r15 42 63 0.0046983
r16 41 53 0.0446983
r17 41 42 0.635
r18 40 49 0.0446983
r19 39 61 0.0046983
r20 39 40 0.2875
r21 37 51 0.0446983
r22 37 38 0.18
r23 36 73 0.0559551
r24 35 38 0.0446983
r25 35 36 0.11
r26 34 88 11.07
r27 34 67 0.0477743
r28 34 88 0.68
r29 33 83 11.07
r30 33 69 0.0477743
r31 33 83 0.68
r32 32 70 0.0477743
r33 32 78 0.68
r34 32 58 3.8825
r35 31 68 0.0477743
r36 31 73 0.68
r37 31 45 5.20333
r38 30 32 1.03022
r39 28 31 1.06083
r40 24 26 7.30769
r41 20 22 18.8462
r42 18 19 634.615
r43 17 34 4.63979
r44 16 18 5.58729
r45 16 17 13.8462
r46 15 26 0.587288
r47 14 22 0.587288
r48 14 15 76.9231
r49 13 33 4.63979
r50 12 19 5.58729
r51 12 13 23.0769
r52 8 24 0.587288
r53 8 10 161.923
r54 4 34 8.27089
r55 4 6 87.6923
r56 3 20 0.587288
r57 2 33 8.27089
r58 2 3 13.8462
.ends

.subckt PM_DECODER_X0_X1_6 6 10 28 30
r0 78 121 0.017931
r1 69 70 0.146
r2 67 68 0.534
r3 61 63 0.0525
r4 56 66 0.0517569
r5 56 58 0.209231
r6 54 65 0.101866
r7 54 66 0.28
r8 52 121 0.0276608
r9 52 53 0.105
r10 50 51 0.2975
r11 48 65 0.0174182
r12 48 49 0.1175
r13 43 50 0.0458784
r14 43 45 0.104615
r15 42 63 0.0046983
r16 41 53 0.0446983
r17 41 42 0.635
r18 40 49 0.0446983
r19 39 61 0.0046983
r20 39 40 0.2875
r21 37 51 0.0446983
r22 37 38 0.18
r23 36 73 0.0559551
r24 35 38 0.0446983
r25 35 36 0.11
r26 34 88 11.07
r27 34 67 0.0477743
r28 34 88 0.68
r29 33 83 11.07
r30 33 69 0.0477743
r31 33 83 0.68
r32 32 70 0.0477743
r33 32 78 0.68
r34 32 58 3.8825
r35 31 68 0.0477743
r36 31 73 0.68
r37 31 45 5.20333
r38 30 32 1.03022
r39 28 31 1.06083
r40 24 26 7.30769
r41 20 22 18.8462
r42 18 19 634.615
r43 17 34 4.63979
r44 16 18 5.58729
r45 16 17 13.8462
r46 15 26 0.587288
r47 14 22 0.587288
r48 14 15 76.9231
r49 13 33 4.63979
r50 12 19 5.58729
r51 12 13 23.0769
r52 8 24 0.587288
r53 8 10 161.923
r54 4 34 8.27089
r55 4 6 87.6923
r56 3 20 0.587288
r57 2 33 8.27089
r58 2 3 13.8462
.ends

.subckt PM_DECODER_X1_X0_6 6 10 28 30
r0 78 121 0.017931
r1 69 70 0.146
r2 67 68 0.534
r3 61 63 0.0525
r4 56 66 0.0517569
r5 56 58 0.209231
r6 54 65 0.101866
r7 54 66 0.28
r8 52 121 0.0276608
r9 52 53 0.105
r10 50 51 0.2975
r11 48 65 0.0174182
r12 48 49 0.1175
r13 43 50 0.0458784
r14 43 45 0.104615
r15 42 63 0.0046983
r16 41 53 0.0446983
r17 41 42 0.635
r18 40 49 0.0446983
r19 39 61 0.0046983
r20 39 40 0.2875
r21 37 51 0.0446983
r22 37 38 0.18
r23 36 73 0.0559551
r24 35 38 0.0446983
r25 35 36 0.11
r26 34 88 11.07
r27 34 67 0.0477743
r28 34 88 0.68
r29 33 83 11.07
r30 33 69 0.0477743
r31 33 83 0.68
r32 32 70 0.0477743
r33 32 78 0.68
r34 32 58 3.8825
r35 31 68 0.0477743
r36 31 73 0.68
r37 31 45 5.20333
r38 30 32 1.03022
r39 28 31 1.06083
r40 24 26 7.30769
r41 20 22 18.8462
r42 18 19 634.615
r43 17 34 4.63979
r44 16 18 5.58729
r45 16 17 13.8462
r46 15 26 0.587288
r47 14 22 0.587288
r48 14 15 76.9231
r49 13 33 4.63979
r50 12 19 5.58729
r51 12 13 23.0769
r52 8 24 0.587288
r53 8 10 161.923
r54 4 34 8.27089
r55 4 6 87.6923
r56 3 20 0.587288
r57 2 33 8.27089
r58 2 3 13.8462
.ends

.subckt PM_DECODER_X1_X1_6 6 10 28 30
r0 78 121 0.017931
r1 69 70 0.146
r2 67 68 0.534
r3 61 63 0.0525
r4 56 66 0.0517569
r5 56 58 0.209231
r6 54 65 0.101866
r7 54 66 0.28
r8 52 121 0.0276608
r9 52 53 0.105
r10 50 51 0.2975
r11 48 65 0.0174182
r12 48 49 0.1175
r13 43 50 0.0458784
r14 43 45 0.104615
r15 42 63 0.0046983
r16 41 53 0.0446983
r17 41 42 0.635
r18 40 49 0.0446983
r19 39 61 0.0046983
r20 39 40 0.2875
r21 37 51 0.0446983
r22 37 38 0.18
r23 36 73 0.0559551
r24 35 38 0.0446983
r25 35 36 0.11
r26 34 88 11.07
r27 34 67 0.0477743
r28 34 88 0.68
r29 33 83 11.07
r30 33 69 0.0477743
r31 33 83 0.68
r32 32 70 0.0477743
r33 32 78 0.68
r34 32 58 3.8825
r35 31 68 0.0477743
r36 31 73 0.68
r37 31 45 5.20333
r38 30 32 1.03022
r39 28 31 1.06083
r40 24 26 7.30769
r41 20 22 18.8462
r42 18 19 634.615
r43 17 34 4.63979
r44 16 18 5.58729
r45 16 17 13.8462
r46 15 26 0.587288
r47 14 22 0.587288
r48 14 15 76.9231
r49 13 33 4.63979
r50 12 19 5.58729
r51 12 13 23.0769
r52 8 24 0.587288
r53 8 10 161.923
r54 4 34 8.27089
r55 4 6 87.6923
r56 3 20 0.587288
r57 2 33 8.27089
r58 2 3 13.8462
.ends

.subckt PM_DECODER_X2_X0_6 6 10 28 30
r0 78 121 0.017931
r1 69 70 0.146
r2 67 68 0.534
r3 61 63 0.0525
r4 56 66 0.0517569
r5 56 58 0.209231
r6 54 65 0.101866
r7 54 66 0.28
r8 52 121 0.0276608
r9 52 53 0.105
r10 50 51 0.2975
r11 48 65 0.0174182
r12 48 49 0.1175
r13 43 50 0.0458784
r14 43 45 0.104615
r15 42 63 0.0046983
r16 41 53 0.0446983
r17 41 42 0.635
r18 40 49 0.0446983
r19 39 61 0.0046983
r20 39 40 0.2875
r21 37 51 0.0446983
r22 37 38 0.18
r23 36 73 0.0559551
r24 35 38 0.0446983
r25 35 36 0.11
r26 34 88 11.07
r27 34 67 0.0477743
r28 34 88 0.68
r29 33 83 11.07
r30 33 69 0.0477743
r31 33 83 0.68
r32 32 70 0.0477743
r33 32 78 0.68
r34 32 58 3.8825
r35 31 68 0.0477743
r36 31 73 0.68
r37 31 45 5.20333
r38 30 32 1.03022
r39 28 31 1.06083
r40 24 26 7.30769
r41 20 22 18.8462
r42 18 19 634.615
r43 17 34 4.63979
r44 16 18 5.58729
r45 16 17 13.8462
r46 15 26 0.587288
r47 14 22 0.587288
r48 14 15 76.9231
r49 13 33 4.63979
r50 12 19 5.58729
r51 12 13 23.0769
r52 8 24 0.587288
r53 8 10 161.923
r54 4 34 8.27089
r55 4 6 87.6923
r56 3 20 0.587288
r57 2 33 8.27089
r58 2 3 13.8462
.ends

.subckt PM_DECODER_X2_X1_6 6 10 28 30
r0 78 121 0.017931
r1 69 70 0.146
r2 67 68 0.534
r3 61 63 0.0525
r4 56 66 0.0517569
r5 56 58 0.209231
r6 54 65 0.101866
r7 54 66 0.28
r8 52 121 0.0276608
r9 52 53 0.105
r10 50 51 0.2975
r11 48 65 0.0174182
r12 48 49 0.1175
r13 43 50 0.0458784
r14 43 45 0.104615
r15 42 63 0.0046983
r16 41 53 0.0446983
r17 41 42 0.635
r18 40 49 0.0446983
r19 39 61 0.0046983
r20 39 40 0.2875
r21 37 51 0.0446983
r22 37 38 0.18
r23 36 73 0.0559551
r24 35 38 0.0446983
r25 35 36 0.11
r26 34 88 11.07
r27 34 67 0.0477743
r28 34 88 0.68
r29 33 83 11.07
r30 33 69 0.0477743
r31 33 83 0.68
r32 32 70 0.0477743
r33 32 78 0.68
r34 32 58 3.8825
r35 31 68 0.0477743
r36 31 73 0.68
r37 31 45 5.20333
r38 30 32 1.03022
r39 28 31 1.06083
r40 24 26 7.30769
r41 20 22 18.8462
r42 18 19 634.615
r43 17 34 4.63979
r44 16 18 5.58729
r45 16 17 13.8462
r46 15 26 0.587288
r47 14 22 0.587288
r48 14 15 76.9231
r49 13 33 4.63979
r50 12 19 5.58729
r51 12 13 23.0769
r52 8 24 0.587288
r53 8 10 161.923
r54 4 34 8.27089
r55 4 6 87.6923
r56 3 20 0.587288
r57 2 33 8.27089
r58 2 3 13.8462
.ends

.subckt PM_DECODER_X3_X0_6 6 10 28 30
r0 78 121 0.017931
r1 69 70 0.146
r2 67 68 0.534
r3 61 63 0.0525
r4 56 66 0.0517569
r5 56 58 0.209231
r6 54 65 0.101866
r7 54 66 0.28
r8 52 121 0.0276608
r9 52 53 0.105
r10 50 51 0.2975
r11 48 65 0.0174182
r12 48 49 0.1175
r13 43 50 0.0458784
r14 43 45 0.104615
r15 42 63 0.0046983
r16 41 53 0.0446983
r17 41 42 0.635
r18 40 49 0.0446983
r19 39 61 0.0046983
r20 39 40 0.2875
r21 37 51 0.0446983
r22 37 38 0.18
r23 36 73 0.0559551
r24 35 38 0.0446983
r25 35 36 0.11
r26 34 88 11.07
r27 34 67 0.0477743
r28 34 88 0.68
r29 33 83 11.07
r30 33 69 0.0477743
r31 33 83 0.68
r32 32 70 0.0477743
r33 32 78 0.68
r34 32 58 3.8825
r35 31 68 0.0477743
r36 31 73 0.68
r37 31 45 5.20333
r38 30 32 1.03022
r39 28 31 1.06083
r40 24 26 7.30769
r41 20 22 18.8462
r42 18 19 634.615
r43 17 34 4.63979
r44 16 18 5.58729
r45 16 17 13.8462
r46 15 26 0.587288
r47 14 22 0.587288
r48 14 15 76.9231
r49 13 33 4.63979
r50 12 19 5.58729
r51 12 13 23.0769
r52 8 24 0.587288
r53 8 10 161.923
r54 4 34 8.27089
r55 4 6 87.6923
r56 3 20 0.587288
r57 2 33 8.27089
r58 2 3 13.8462
.ends

.subckt PM_DECODER_X3_X1_6 6 10 28 30
r0 78 121 0.017931
r1 69 70 0.146
r2 67 68 0.534
r3 61 63 0.0525
r4 56 66 0.0517569
r5 56 58 0.209231
r6 54 65 0.101866
r7 54 66 0.28
r8 52 121 0.0276608
r9 52 53 0.105
r10 50 51 0.2975
r11 48 65 0.0174182
r12 48 49 0.1175
r13 43 50 0.0458784
r14 43 45 0.104615
r15 42 63 0.0046983
r16 41 53 0.0446983
r17 41 42 0.635
r18 40 49 0.0446983
r19 39 61 0.0046983
r20 39 40 0.2875
r21 37 51 0.0446983
r22 37 38 0.18
r23 36 73 0.0559551
r24 35 38 0.0446983
r25 35 36 0.11
r26 34 88 11.07
r27 34 67 0.0477743
r28 34 88 0.68
r29 33 83 11.07
r30 33 69 0.0477743
r31 33 83 0.68
r32 32 70 0.0477743
r33 32 78 0.68
r34 32 58 3.8825
r35 31 68 0.0477743
r36 31 73 0.68
r37 31 45 5.20333
r38 30 32 1.03022
r39 28 31 1.06083
r40 24 26 7.30769
r41 20 22 18.8462
r42 18 19 634.615
r43 17 34 4.63979
r44 16 18 5.58729
r45 16 17 13.8462
r46 15 26 0.587288
r47 14 22 0.587288
r48 14 15 76.9231
r49 13 33 4.63979
r50 12 19 5.58729
r51 12 13 23.0769
r52 8 24 0.587288
r53 8 10 161.923
r54 4 34 8.27089
r55 4 6 87.6923
r56 3 20 0.587288
r57 2 33 8.27089
r58 2 3 13.8462
.ends

.subckt PM_DECODER_X4_X0_6 6 10 28 30
r0 78 121 0.017931
r1 69 70 0.146
r2 67 68 0.534
r3 61 63 0.0525
r4 56 66 0.0517569
r5 56 58 0.209231
r6 54 65 0.101866
r7 54 66 0.28
r8 52 121 0.0276608
r9 52 53 0.105
r10 50 51 0.2975
r11 48 65 0.0174182
r12 48 49 0.1175
r13 43 50 0.0458784
r14 43 45 0.104615
r15 42 63 0.0046983
r16 41 53 0.0446983
r17 41 42 0.635
r18 40 49 0.0446983
r19 39 61 0.0046983
r20 39 40 0.2875
r21 37 51 0.0446983
r22 37 38 0.18
r23 36 73 0.0559551
r24 35 38 0.0446983
r25 35 36 0.11
r26 34 88 11.07
r27 34 67 0.0477743
r28 34 88 0.68
r29 33 83 11.07
r30 33 69 0.0477743
r31 33 83 0.68
r32 32 70 0.0477743
r33 32 78 0.68
r34 32 58 3.8825
r35 31 68 0.0477743
r36 31 73 0.68
r37 31 45 5.20333
r38 30 32 1.03022
r39 28 31 1.06083
r40 24 26 7.30769
r41 20 22 18.8462
r42 18 19 634.615
r43 17 34 4.63979
r44 16 18 5.58729
r45 16 17 13.8462
r46 15 26 0.587288
r47 14 22 0.587288
r48 14 15 76.9231
r49 13 33 4.63979
r50 12 19 5.58729
r51 12 13 23.0769
r52 8 24 0.587288
r53 8 10 161.923
r54 4 34 8.27089
r55 4 6 87.6923
r56 3 20 0.587288
r57 2 33 8.27089
r58 2 3 13.8462
.ends

.subckt PM_DECODER_X4_X1_6 6 10 28 30
r0 78 121 0.017931
r1 69 70 0.146
r2 67 68 0.534
r3 61 63 0.0525
r4 56 66 0.0517569
r5 56 58 0.209231
r6 54 65 0.101866
r7 54 66 0.28
r8 52 121 0.0276608
r9 52 53 0.105
r10 50 51 0.2975
r11 48 65 0.0174182
r12 48 49 0.1175
r13 43 50 0.0458784
r14 43 45 0.104615
r15 42 63 0.0046983
r16 41 53 0.0446983
r17 41 42 0.635
r18 40 49 0.0446983
r19 39 61 0.0046983
r20 39 40 0.2875
r21 37 51 0.0446983
r22 37 38 0.18
r23 36 73 0.0559551
r24 35 38 0.0446983
r25 35 36 0.11
r26 34 88 11.07
r27 34 67 0.0477743
r28 34 88 0.68
r29 33 83 11.07
r30 33 69 0.0477743
r31 33 83 0.68
r32 32 70 0.0477743
r33 32 78 0.68
r34 32 58 3.8825
r35 31 68 0.0477743
r36 31 73 0.68
r37 31 45 5.20333
r38 30 32 1.03022
r39 28 31 1.06083
r40 24 26 7.30769
r41 20 22 18.8462
r42 18 19 634.615
r43 17 34 4.63979
r44 16 18 5.58729
r45 16 17 13.8462
r46 15 26 0.587288
r47 14 22 0.587288
r48 14 15 76.9231
r49 13 33 4.63979
r50 12 19 5.58729
r51 12 13 23.0769
r52 8 24 0.587288
r53 8 10 161.923
r54 4 34 8.27089
r55 4 6 87.6923
r56 3 20 0.587288
r57 2 33 8.27089
r58 2 3 13.8462
.ends

.subckt PM_DECODER_X5_X0_6 6 10 28 30
r0 78 121 0.017931
r1 69 70 0.146
r2 67 68 0.534
r3 61 63 0.0525
r4 56 66 0.0517569
r5 56 58 0.209231
r6 54 65 0.101866
r7 54 66 0.28
r8 52 121 0.0276608
r9 52 53 0.105
r10 50 51 0.2975
r11 48 65 0.0174182
r12 48 49 0.1175
r13 43 50 0.0458784
r14 43 45 0.104615
r15 42 63 0.0046983
r16 41 53 0.0446983
r17 41 42 0.635
r18 40 49 0.0446983
r19 39 61 0.0046983
r20 39 40 0.2875
r21 37 51 0.0446983
r22 37 38 0.18
r23 36 73 0.0559551
r24 35 38 0.0446983
r25 35 36 0.11
r26 34 88 11.07
r27 34 67 0.0477743
r28 34 88 0.68
r29 33 83 11.07
r30 33 69 0.0477743
r31 33 83 0.68
r32 32 70 0.0477743
r33 32 78 0.68
r34 32 58 3.8825
r35 31 68 0.0477743
r36 31 73 0.68
r37 31 45 5.20333
r38 30 32 1.03022
r39 28 31 1.06083
r40 24 26 7.30769
r41 20 22 18.8462
r42 18 19 634.615
r43 17 34 4.63979
r44 16 18 5.58729
r45 16 17 13.8462
r46 15 26 0.587288
r47 14 22 0.587288
r48 14 15 76.9231
r49 13 33 4.63979
r50 12 19 5.58729
r51 12 13 23.0769
r52 8 24 0.587288
r53 8 10 161.923
r54 4 34 8.27089
r55 4 6 87.6923
r56 3 20 0.587288
r57 2 33 8.27089
r58 2 3 13.8462
.ends

.subckt PM_DECODER_X5_X1_6 6 10 28 30
r0 78 121 0.017931
r1 69 70 0.146
r2 67 68 0.534
r3 61 63 0.0525
r4 56 66 0.0517569
r5 56 58 0.209231
r6 54 65 0.101866
r7 54 66 0.28
r8 52 121 0.0276608
r9 52 53 0.105
r10 50 51 0.2975
r11 48 65 0.0174182
r12 48 49 0.1175
r13 43 50 0.0458784
r14 43 45 0.104615
r15 42 63 0.0046983
r16 41 53 0.0446983
r17 41 42 0.635
r18 40 49 0.0446983
r19 39 61 0.0046983
r20 39 40 0.2875
r21 37 51 0.0446983
r22 37 38 0.18
r23 36 73 0.0559551
r24 35 38 0.0446983
r25 35 36 0.11
r26 34 88 11.07
r27 34 67 0.0477743
r28 34 88 0.68
r29 33 83 11.07
r30 33 69 0.0477743
r31 33 83 0.68
r32 32 70 0.0477743
r33 32 78 0.68
r34 32 58 3.8825
r35 31 68 0.0477743
r36 31 73 0.68
r37 31 45 5.20333
r38 30 32 1.03022
r39 28 31 1.06083
r40 24 26 7.30769
r41 20 22 18.8462
r42 18 19 634.615
r43 17 34 4.63979
r44 16 18 5.58729
r45 16 17 13.8462
r46 15 26 0.587288
r47 14 22 0.587288
r48 14 15 76.9231
r49 13 33 4.63979
r50 12 19 5.58729
r51 12 13 23.0769
r52 8 24 0.587288
r53 8 10 161.923
r54 4 34 8.27089
r55 4 6 87.6923
r56 3 20 0.587288
r57 2 33 8.27089
r58 2 3 13.8462
.ends

.subckt PM_DECODER_X6_X0_6 6 10 28 30
r0 78 121 0.017931
r1 69 70 0.146
r2 67 68 0.534
r3 61 63 0.0525
r4 56 66 0.0517569
r5 56 58 0.209231
r6 54 65 0.101866
r7 54 66 0.28
r8 52 121 0.0276608
r9 52 53 0.105
r10 50 51 0.2975
r11 48 65 0.0174182
r12 48 49 0.1175
r13 43 50 0.0458784
r14 43 45 0.104615
r15 42 63 0.0046983
r16 41 53 0.0446983
r17 41 42 0.635
r18 40 49 0.0446983
r19 39 61 0.0046983
r20 39 40 0.2875
r21 37 51 0.0446983
r22 37 38 0.18
r23 36 73 0.0559551
r24 35 38 0.0446983
r25 35 36 0.11
r26 34 88 11.07
r27 34 67 0.0477743
r28 34 88 0.68
r29 33 83 11.07
r30 33 69 0.0477743
r31 33 83 0.68
r32 32 70 0.0477743
r33 32 78 0.68
r34 32 58 3.8825
r35 31 68 0.0477743
r36 31 73 0.68
r37 31 45 5.20333
r38 30 32 1.03022
r39 28 31 1.06083
r40 24 26 7.30769
r41 20 22 18.8462
r42 18 19 634.615
r43 17 34 4.63979
r44 16 18 5.58729
r45 16 17 13.8462
r46 15 26 0.587288
r47 14 22 0.587288
r48 14 15 76.9231
r49 13 33 4.63979
r50 12 19 5.58729
r51 12 13 23.0769
r52 8 24 0.587288
r53 8 10 161.923
r54 4 34 8.27089
r55 4 6 87.6923
r56 3 20 0.587288
r57 2 33 8.27089
r58 2 3 13.8462
.ends

.subckt PM_DECODER_X6_X1_6 6 10 28 30
r0 78 121 0.017931
r1 69 70 0.146
r2 67 68 0.534
r3 61 63 0.0525
r4 56 66 0.0517569
r5 56 58 0.209231
r6 54 65 0.101866
r7 54 66 0.28
r8 52 121 0.0276608
r9 52 53 0.105
r10 50 51 0.2975
r11 48 65 0.0174182
r12 48 49 0.1175
r13 43 50 0.0458784
r14 43 45 0.104615
r15 42 63 0.0046983
r16 41 53 0.0446983
r17 41 42 0.635
r18 40 49 0.0446983
r19 39 61 0.0046983
r20 39 40 0.2875
r21 37 51 0.0446983
r22 37 38 0.18
r23 36 73 0.0559551
r24 35 38 0.0446983
r25 35 36 0.11
r26 34 88 11.07
r27 34 67 0.0477743
r28 34 88 0.68
r29 33 83 11.07
r30 33 69 0.0477743
r31 33 83 0.68
r32 32 70 0.0477743
r33 32 78 0.68
r34 32 58 3.8825
r35 31 68 0.0477743
r36 31 73 0.68
r37 31 45 5.20333
r38 30 32 1.03022
r39 28 31 1.06083
r40 24 26 7.30769
r41 20 22 18.8462
r42 18 19 634.615
r43 17 34 4.63979
r44 16 18 5.58729
r45 16 17 13.8462
r46 15 26 0.587288
r47 14 22 0.587288
r48 14 15 76.9231
r49 13 33 4.63979
r50 12 19 5.58729
r51 12 13 23.0769
r52 8 24 0.587288
r53 8 10 161.923
r54 4 34 8.27089
r55 4 6 87.6923
r56 3 20 0.587288
r57 2 33 8.27089
r58 2 3 13.8462
.ends

.subckt PM_DECODER_X7_X0_6 6 10 28 30
r0 78 121 0.017931
r1 69 70 0.146
r2 67 68 0.534
r3 61 63 0.0525
r4 56 66 0.0517569
r5 56 58 0.209231
r6 54 65 0.101866
r7 54 66 0.28
r8 52 121 0.0276608
r9 52 53 0.105
r10 50 51 0.2975
r11 48 65 0.0174182
r12 48 49 0.1175
r13 43 50 0.0458784
r14 43 45 0.104615
r15 42 63 0.0046983
r16 41 53 0.0446983
r17 41 42 0.635
r18 40 49 0.0446983
r19 39 61 0.0046983
r20 39 40 0.2875
r21 37 51 0.0446983
r22 37 38 0.18
r23 36 73 0.0559551
r24 35 38 0.0446983
r25 35 36 0.11
r26 34 88 11.07
r27 34 67 0.0477743
r28 34 88 0.68
r29 33 83 11.07
r30 33 69 0.0477743
r31 33 83 0.68
r32 32 70 0.0477743
r33 32 78 0.68
r34 32 58 3.8825
r35 31 68 0.0477743
r36 31 73 0.68
r37 31 45 5.20333
r38 30 32 1.03022
r39 28 31 1.06083
r40 24 26 7.30769
r41 20 22 18.8462
r42 18 19 634.615
r43 17 34 4.63979
r44 16 18 5.58729
r45 16 17 13.8462
r46 15 26 0.587288
r47 14 22 0.587288
r48 14 15 76.9231
r49 13 33 4.63979
r50 12 19 5.58729
r51 12 13 23.0769
r52 8 24 0.587288
r53 8 10 161.923
r54 4 34 8.27089
r55 4 6 87.6923
r56 3 20 0.587288
r57 2 33 8.27089
r58 2 3 13.8462
.ends

.subckt PM_DECODER_X7_X1_6 6 10 28 30
r0 78 121 0.017931
r1 69 70 0.146
r2 67 68 0.534
r3 61 63 0.0525
r4 56 66 0.0517569
r5 56 58 0.209231
r6 54 65 0.101866
r7 54 66 0.28
r8 52 121 0.0276608
r9 52 53 0.105
r10 50 51 0.2975
r11 48 65 0.0174182
r12 48 49 0.1175
r13 43 50 0.0458784
r14 43 45 0.104615
r15 42 63 0.0046983
r16 41 53 0.0446983
r17 41 42 0.635
r18 40 49 0.0446983
r19 39 61 0.0046983
r20 39 40 0.2875
r21 37 51 0.0446983
r22 37 38 0.18
r23 36 73 0.0559551
r24 35 38 0.0446983
r25 35 36 0.11
r26 34 88 11.07
r27 34 67 0.0477743
r28 34 88 0.68
r29 33 83 11.07
r30 33 69 0.0477743
r31 33 83 0.68
r32 32 70 0.0477743
r33 32 78 0.68
r34 32 58 3.8825
r35 31 68 0.0477743
r36 31 73 0.68
r37 31 45 5.20333
r38 30 32 1.03022
r39 28 31 1.06083
r40 24 26 7.30769
r41 20 22 18.8462
r42 18 19 634.615
r43 17 34 4.63979
r44 16 18 5.58729
r45 16 17 13.8462
r46 15 26 0.587288
r47 14 22 0.587288
r48 14 15 76.9231
r49 13 33 4.63979
r50 12 19 5.58729
r51 12 13 23.0769
r52 8 24 0.587288
r53 8 10 161.923
r54 4 34 8.27089
r55 4 6 87.6923
r56 3 20 0.587288
r57 2 33 8.27089
r58 2 3 13.8462
.ends

.subckt PM_DECODER_X0_7 1 3 60 64
r0 102 103 0.748
r1 100 103 0.0446983
r2 100 106 0.962
r3 74 102 0.0477743
r4 67 90 0.68
r5 67 81 2
r6 67 90 11.07
r7 67 74 0.68
r8 66 70 11.07
r9 66 70 0.68
r10 62 81 4.20996
r11 62 64 647.308
r12 58 60 96.9231
r13 57 66 6.11371
r14 56 81 7.85253
r15 56 57 14.75
r16 54 58 5.58729
r17 54 55 28.4615
r18 53 55 5.58729
r19 52 66 4.63979
r20 52 53 273.846
r21 32 106 0.0477743
r22 28 30 0.11
r23 24 26 0.1325
r24 19 22 0.0517569
r25 17 30 0.0046983
r26 16 45 0.0559551
r27 16 17 0.7025
r28 15 45 0.0559551
r29 14 26 0.0046983
r30 14 15 4.6675
r31 12 28 0.0046983
r32 12 23 0.3225
r33 11 24 0.0046983
r34 11 22 0.3
r35 5 23 0.0517569
r36 5 7 0.209231
r37 4 45 0.68
r38 4 32 0.68
r39 4 19 15.61
r40 4 7 3.8825
r41 3 4 0.921778
r42 1 4 1.89833
.ends

.subckt PM_DECODER_X1_7 1 3 60 64
r0 102 103 0.748
r1 100 103 0.0446983
r2 100 106 0.962
r3 74 102 0.0477743
r4 67 90 0.68
r5 67 81 2
r6 67 90 11.07
r7 67 74 0.68
r8 66 70 11.07
r9 66 70 0.68
r10 62 81 4.20996
r11 62 64 647.308
r12 58 60 96.9231
r13 57 66 6.11371
r14 56 81 7.85253
r15 56 57 14.75
r16 54 58 5.58729
r17 54 55 28.4615
r18 53 55 5.58729
r19 52 66 4.63979
r20 52 53 273.846
r21 32 106 0.0477743
r22 28 30 0.11
r23 24 26 0.1325
r24 19 22 0.0517569
r25 17 30 0.0046983
r26 16 45 0.0559551
r27 16 17 0.7025
r28 15 45 0.0559551
r29 14 26 0.0046983
r30 14 15 4.6675
r31 12 28 0.0046983
r32 12 23 0.3225
r33 11 24 0.0046983
r34 11 22 0.3
r35 5 23 0.0517569
r36 5 7 0.209231
r37 4 45 0.68
r38 4 32 0.68
r39 4 19 15.61
r40 4 7 3.8825
r41 3 4 0.921778
r42 1 4 1.89833
.ends

.subckt PM_DECODER_X2_7 1 3 60 64
r0 102 103 0.748
r1 100 103 0.0446983
r2 100 106 0.962
r3 74 102 0.0477743
r4 67 90 0.68
r5 67 81 2
r6 67 90 11.07
r7 67 74 0.68
r8 66 70 11.07
r9 66 70 0.68
r10 62 81 4.20996
r11 62 64 647.308
r12 58 60 96.9231
r13 57 66 6.11371
r14 56 81 7.85253
r15 56 57 14.75
r16 54 58 5.58729
r17 54 55 28.4615
r18 53 55 5.58729
r19 52 66 4.63979
r20 52 53 273.846
r21 32 106 0.0477743
r22 28 30 0.11
r23 24 26 0.1325
r24 19 22 0.0517569
r25 17 30 0.0046983
r26 16 45 0.0559551
r27 16 17 0.7025
r28 15 45 0.0559551
r29 14 26 0.0046983
r30 14 15 4.6675
r31 12 28 0.0046983
r32 12 23 0.3225
r33 11 24 0.0046983
r34 11 22 0.3
r35 5 23 0.0517569
r36 5 7 0.209231
r37 4 45 0.68
r38 4 32 0.68
r39 4 19 15.61
r40 4 7 3.8825
r41 3 4 0.921778
r42 1 4 1.89833
.ends

.subckt PM_DECODER_X3_7 1 3 60 64
r0 102 103 0.748
r1 100 103 0.0446983
r2 100 106 0.962
r3 74 102 0.0477743
r4 67 90 0.68
r5 67 81 2
r6 67 90 11.07
r7 67 74 0.68
r8 66 70 11.07
r9 66 70 0.68
r10 62 81 4.20996
r11 62 64 647.308
r12 58 60 96.9231
r13 57 66 6.11371
r14 56 81 7.85253
r15 56 57 14.75
r16 54 58 5.58729
r17 54 55 28.4615
r18 53 55 5.58729
r19 52 66 4.63979
r20 52 53 273.846
r21 32 106 0.0477743
r22 28 30 0.11
r23 24 26 0.1325
r24 19 22 0.0517569
r25 17 30 0.0046983
r26 16 45 0.0559551
r27 16 17 0.7025
r28 15 45 0.0559551
r29 14 26 0.0046983
r30 14 15 4.6675
r31 12 28 0.0046983
r32 12 23 0.3225
r33 11 24 0.0046983
r34 11 22 0.3
r35 5 23 0.0517569
r36 5 7 0.209231
r37 4 45 0.68
r38 4 32 0.68
r39 4 19 15.61
r40 4 7 3.8825
r41 3 4 0.921778
r42 1 4 1.89833
.ends

.subckt PM_DECODER_X4_7 1 3 60 64
r0 102 103 0.748
r1 100 103 0.0446983
r2 100 106 0.962
r3 74 102 0.0477743
r4 67 90 0.68
r5 67 81 2
r6 67 90 11.07
r7 67 74 0.68
r8 66 70 11.07
r9 66 70 0.68
r10 62 81 4.20996
r11 62 64 647.308
r12 58 60 96.9231
r13 57 66 6.11371
r14 56 81 7.85253
r15 56 57 14.75
r16 54 58 5.58729
r17 54 55 28.4615
r18 53 55 5.58729
r19 52 66 4.63979
r20 52 53 273.846
r21 32 106 0.0477743
r22 28 30 0.11
r23 24 26 0.1325
r24 19 22 0.0517569
r25 17 30 0.0046983
r26 16 45 0.0559551
r27 16 17 0.7025
r28 15 45 0.0559551
r29 14 26 0.0046983
r30 14 15 4.6675
r31 12 28 0.0046983
r32 12 23 0.3225
r33 11 24 0.0046983
r34 11 22 0.3
r35 5 23 0.0517569
r36 5 7 0.209231
r37 4 45 0.68
r38 4 32 0.68
r39 4 19 15.61
r40 4 7 3.8825
r41 3 4 0.921778
r42 1 4 1.89833
.ends

.subckt PM_DECODER_X5_7 1 3 60 64
r0 102 103 0.748
r1 100 103 0.0446983
r2 100 106 0.962
r3 74 102 0.0477743
r4 67 90 0.68
r5 67 81 2
r6 67 90 11.07
r7 67 74 0.68
r8 66 70 11.07
r9 66 70 0.68
r10 62 81 4.20996
r11 62 64 647.308
r12 58 60 96.9231
r13 57 66 6.11371
r14 56 81 7.85253
r15 56 57 14.75
r16 54 58 5.58729
r17 54 55 28.4615
r18 53 55 5.58729
r19 52 66 4.63979
r20 52 53 273.846
r21 32 106 0.0477743
r22 28 30 0.11
r23 24 26 0.1325
r24 19 22 0.0517569
r25 17 30 0.0046983
r26 16 45 0.0559551
r27 16 17 0.7025
r28 15 45 0.0559551
r29 14 26 0.0046983
r30 14 15 4.6675
r31 12 28 0.0046983
r32 12 23 0.3225
r33 11 24 0.0046983
r34 11 22 0.3
r35 5 23 0.0517569
r36 5 7 0.209231
r37 4 45 0.68
r38 4 32 0.68
r39 4 19 15.61
r40 4 7 3.8825
r41 3 4 0.921778
r42 1 4 1.89833
.ends

.subckt PM_DECODER_X6_7 1 3 60 64
r0 102 103 0.748
r1 100 103 0.0446983
r2 100 106 0.962
r3 74 102 0.0477743
r4 67 90 0.68
r5 67 81 2
r6 67 90 11.07
r7 67 74 0.68
r8 66 70 11.07
r9 66 70 0.68
r10 62 81 4.20996
r11 62 64 647.308
r12 58 60 96.9231
r13 57 66 6.11371
r14 56 81 7.85253
r15 56 57 14.75
r16 54 58 5.58729
r17 54 55 28.4615
r18 53 55 5.58729
r19 52 66 4.63979
r20 52 53 273.846
r21 32 106 0.0477743
r22 28 30 0.11
r23 24 26 0.1325
r24 19 22 0.0517569
r25 17 30 0.0046983
r26 16 45 0.0559551
r27 16 17 0.7025
r28 15 45 0.0559551
r29 14 26 0.0046983
r30 14 15 4.6675
r31 12 28 0.0046983
r32 12 23 0.3225
r33 11 24 0.0046983
r34 11 22 0.3
r35 5 23 0.0517569
r36 5 7 0.209231
r37 4 45 0.68
r38 4 32 0.68
r39 4 19 15.61
r40 4 7 3.8825
r41 3 4 0.921778
r42 1 4 1.89833
.ends

.subckt PM_DECODER_X7_7 1 3 60 64
r0 102 103 0.748
r1 100 103 0.0446983
r2 100 106 0.962
r3 74 102 0.0477743
r4 67 90 0.68
r5 67 81 2
r6 67 90 11.07
r7 67 74 0.68
r8 66 70 11.07
r9 66 70 0.68
r10 62 81 4.20996
r11 62 64 647.308
r12 58 60 96.9231
r13 57 66 6.11371
r14 56 81 7.85253
r15 56 57 14.75
r16 54 58 5.58729
r17 54 55 28.4615
r18 53 55 5.58729
r19 52 66 4.63979
r20 52 53 273.846
r21 32 106 0.0477743
r22 28 30 0.11
r23 24 26 0.1325
r24 19 22 0.0517569
r25 17 30 0.0046983
r26 16 45 0.0559551
r27 16 17 0.7025
r28 15 45 0.0559551
r29 14 26 0.0046983
r30 14 15 4.6675
r31 12 28 0.0046983
r32 12 23 0.3225
r33 11 24 0.0046983
r34 11 22 0.3
r35 5 23 0.0517569
r36 5 7 0.209231
r37 4 45 0.68
r38 4 32 0.68
r39 4 19 15.61
r40 4 7 3.8825
r41 3 4 0.921778
r42 1 4 1.89833
.ends

.subckt PM_DECODER_VDD 4 5 36 39 40 98 99 133 134 192 193 227 228 286 287 321
+ 322 380 381 415 416 474 475 509 510 568 569 603 604 662 663 697 698 755 776
+ 797 1035
r0 1070 1124 0.0983827
r1 1069 1122 0.0983827
r2 1068 1121 0.00426667
r3 1067 1122 0.00426667
r4 1067 1068 0.150667
r5 1066 1121 0.0983827
r6 1065 1119 0.0983827
r7 1064 1118 0.00426667
r8 1063 1119 0.00426667
r9 1063 1064 0.150667
r10 1062 1118 0.0983827
r11 1061 1116 0.0983827
r12 1060 1115 0.00426667
r13 1059 1116 0.00426667
r14 1059 1060 0.150667
r15 1058 1115 0.0983827
r16 1057 1113 0.0983827
r17 1055 1112 0.00419427
r18 1054 1113 0.00426667
r19 1053 1112 0.0648174
r20 1052 1111 0.00426667
r21 1051 1112 0.00419427
r22 1051 1052 0.1152
r23 1050 1111 0.0983827
r24 1049 1109 0.0983827
r25 1048 1108 0.00426667
r26 1047 1109 0.00426667
r27 1047 1048 0.150667
r28 1046 1108 0.0983827
r29 1045 1106 0.0983827
r30 1044 1105 0.00426667
r31 1043 1106 0.00426667
r32 1043 1044 0.150667
r33 1042 1105 0.0983827
r34 1041 1103 0.0983827
r35 1040 1102 0.00426667
r36 1039 1103 0.00426667
r37 1039 1040 0.150667
r38 1038 1102 0.0983827
r39 1037 1100 0.0983827
r40 1033 1099 0.00419427
r41 1033 1035 0.00746667
r42 1032 1100 0.00426667
r43 1031 1099 0.0648174
r44 1030 1098 0.00426667
r45 1029 1099 0.00419427
r46 1029 1030 0.1152
r47 1028 1098 0.0983827
r48 1027 1096 0.0983827
r49 1026 1095 0.00426667
r50 1025 1096 0.00426667
r51 1025 1026 0.150667
r52 1024 1095 0.0983827
r53 1023 1093 0.0983827
r54 1022 1092 0.00426667
r55 1021 1093 0.00426667
r56 1021 1022 0.150667
r57 1020 1092 0.0983827
r58 1019 1090 0.0983827
r59 1018 1089 0.00426667
r60 1017 1090 0.00426667
r61 1017 1018 0.150667
r62 1016 1089 0.0983827
r63 1015 1087 0.0983827
r64 1013 1086 0.00419427
r65 1012 1087 0.00426667
r66 1011 1086 0.0648174
r67 1010 1085 0.00426667
r68 1009 1086 0.00419427
r69 1009 1010 0.1152
r70 1008 1085 0.0983827
r71 1007 1083 0.0983827
r72 1006 1082 0.00426667
r73 1005 1083 0.00426667
r74 1005 1006 0.150667
r75 1004 1082 0.0983827
r76 1003 1080 0.0983827
r77 1002 1079 0.00426667
r78 1001 1080 0.00426667
r79 1001 1002 0.150667
r80 1000 1079 0.0983827
r81 999 1077 0.0983827
r82 998 1076 0.00426667
r83 997 1077 0.00426667
r84 997 998 0.150667
r85 996 1076 0.0983827
r86 995 1073 0.0983827
r87 807 1053 0.2125
r88 805 1054 0.0951467
r89 805 1055 0.01712
r90 799 807 0.0506881
r91 799 801 0.104615
r92 797 809 0.916356
r93 786 1031 0.2125
r94 784 1032 0.0951467
r95 784 1035 0.00965333
r96 778 786 0.0506881
r97 778 780 0.104615
r98 776 788 0.916356
r99 765 1011 0.2125
r100 763 1012 0.0951467
r101 763 1013 0.01712
r102 757 765 0.0506881
r103 757 759 0.104615
r104 755 767 0.916356
r105 715 1070 0.2125
r106 714 1069 0.2125
r107 712 1124 0.0138667
r108 712 1122 0.0402667
r109 706 715 0.0461878
r110 706 708 0.104615
r111 700 714 0.0465316
r112 700 702 0.104615
r113 697 717 0.921778
r114 680 1066 0.2125
r115 679 1065 0.2125
r116 677 1121 0.0138667
r117 677 1119 0.0402667
r118 671 680 0.0461878
r119 671 673 0.104615
r120 665 679 0.0465316
r121 665 667 0.104615
r122 662 682 0.921778
r123 621 1062 0.2125
r124 620 1061 0.2125
r125 618 1118 0.0138667
r126 618 1116 0.0402667
r127 612 621 0.0461878
r128 612 614 0.104615
r129 606 620 0.0465316
r130 606 608 0.104615
r131 603 623 0.921778
r132 586 1058 0.2125
r133 585 1057 0.2125
r134 583 1115 0.0138667
r135 583 1113 0.0402667
r136 577 586 0.0461878
r137 577 579 0.104615
r138 571 585 0.0465316
r139 571 573 0.104615
r140 568 588 0.921778
r141 527 1050 0.2125
r142 526 1049 0.2125
r143 524 1111 0.0138667
r144 524 1109 0.0402667
r145 518 527 0.0461878
r146 518 520 0.104615
r147 512 526 0.0465316
r148 512 514 0.104615
r149 509 529 0.921778
r150 492 1046 0.2125
r151 491 1045 0.2125
r152 489 1108 0.0138667
r153 489 1106 0.0402667
r154 483 492 0.0461878
r155 483 485 0.104615
r156 477 491 0.0465316
r157 477 479 0.104615
r158 474 494 0.921778
r159 433 1042 0.2125
r160 432 1041 0.2125
r161 430 1105 0.0138667
r162 430 1103 0.0402667
r163 424 433 0.0461878
r164 424 426 0.104615
r165 418 432 0.0465316
r166 418 420 0.104615
r167 415 435 0.921778
r168 398 1038 0.2125
r169 397 1037 0.2125
r170 395 1102 0.0138667
r171 395 1100 0.0402667
r172 389 398 0.0461878
r173 389 391 0.104615
r174 383 397 0.0465316
r175 383 385 0.104615
r176 380 400 0.921778
r177 339 1028 0.2125
r178 338 1027 0.2125
r179 336 1098 0.0138667
r180 336 1096 0.0402667
r181 330 339 0.0461878
r182 330 332 0.104615
r183 324 338 0.0465316
r184 324 326 0.104615
r185 321 341 0.921778
r186 304 1024 0.2125
r187 303 1023 0.2125
r188 301 1095 0.0138667
r189 301 1093 0.0402667
r190 295 304 0.0461878
r191 295 297 0.104615
r192 289 303 0.0465316
r193 289 291 0.104615
r194 286 306 0.921778
r195 245 1020 0.2125
r196 244 1019 0.2125
r197 242 1092 0.0138667
r198 242 1090 0.0402667
r199 236 245 0.0461878
r200 236 238 0.104615
r201 230 244 0.0465316
r202 230 232 0.104615
r203 227 247 0.921778
r204 210 1016 0.2125
r205 209 1015 0.2125
r206 207 1089 0.0138667
r207 207 1087 0.0402667
r208 201 210 0.0461878
r209 201 203 0.104615
r210 195 209 0.0465316
r211 195 197 0.104615
r212 192 212 0.921778
r213 151 1008 0.2125
r214 150 1007 0.2125
r215 148 1085 0.0138667
r216 148 1083 0.0402667
r217 142 151 0.0461878
r218 142 144 0.104615
r219 136 150 0.0465316
r220 136 138 0.104615
r221 133 153 0.921778
r222 116 1004 0.2125
r223 115 1003 0.2125
r224 113 1082 0.0138667
r225 113 1080 0.0402667
r226 107 116 0.0461878
r227 107 109 0.104615
r228 101 115 0.0465316
r229 101 103 0.104615
r230 98 118 0.921778
r231 57 1000 0.2125
r232 56 999 0.2125
r233 54 1079 0.0138667
r234 54 1077 0.0402667
r235 48 57 0.0461878
r236 48 50 0.104615
r237 42 56 0.0465316
r238 42 44 0.104615
r239 39 59 0.921778
r240 36 809 0.108444
r241 36 805 0.975625
r242 36 801 3.8825
r243 36 788 0.108444
r244 36 784 0.975625
r245 36 780 3.8825
r246 36 767 0.108444
r247 36 763 0.975625
r248 36 759 3.8825
r249 36 698 1.03022
r250 36 717 0.108444
r251 36 712 0.354773
r252 36 708 3.8825
r253 36 702 3.8825
r254 36 663 1.03022
r255 36 682 0.108444
r256 36 677 0.354773
r257 36 673 3.8825
r258 36 667 3.8825
r259 36 604 1.03022
r260 36 623 0.108444
r261 36 618 0.354773
r262 36 614 3.8825
r263 36 608 3.8825